  Page 1                                    Thu Sep 03 09:39:07 2020

  ******************************************************************
  *                           E P A N E T                          *
  *                   Hydraulic and Water Quality                  *
  *                   Analysis for Pipe Networks                   *
  *                         Version 2.1                            *
  ******************************************************************
  
  Analysis begun Thu Sep 03 09:39:07 2020

   
  Node Results at 0:00:00 hrs:
  ----------------------------------------------
                     Demand      Head  Pressure
  Node                  L/s         m         m
  ----------------------------------------------
  ND-01-003            0.00   2814.78      7.72
  ND-01-004            0.00   2814.60     17.84
  ND-01-005            0.00   2814.50     17.75
  ND-01-006            0.00   2814.49     17.74
  ND-01-007            0.00   2814.42     17.60
  ND-01-008            0.00   2805.98      9.16
  ND-01-009            0.00   2805.91      8.98
  ND-01-010            0.00   2805.84      8.56
  ND-01-011            0.00   2805.76      6.86
  ND-01-012            0.00   2805.76      6.88
  ND-01-013            0.00   2805.45      6.60
  ND-01-014            0.00   2805.45      6.56
  ND-01-015            0.00   2805.45      6.60
  ND-01-016            0.00   2805.45      8.85
  ND-01-017            0.00   2805.45      8.79
  ND-01-018            0.00   2805.45      6.57
  ND-01-019            0.00   2805.45      6.57
  ND-01-020            0.00   2805.45      6.61
  ND-01-021            0.00   2805.45      6.58
  ND-02-006            0.00   2814.14     17.53
  ND-02-007            0.00   2813.93     17.32
  ND-02-008            0.00   2813.66     17.05
  ND-02-009            0.00   2813.52     16.77
  ND-02-010            0.00   2805.90      9.14
  ND-02-011            0.00   2805.83      9.07
  ND-02-012            0.00   2805.75      8.15
  ND-02-013            0.00   2805.68      6.80
  ND-02-015            0.00   2805.36      6.49
  ND-02-016            0.00   2805.27      6.39
  ND-02-017            0.00   2804.97      6.09
  ND-02-018            0.00   2804.66      8.00
  ND-02-019            0.00   2804.33      7.68
  ND-02-020            0.00   2804.03      5.15
  ND-02-021            0.00   2803.95      5.07
  ND-02-022            0.00   2803.92      5.04
  ND-02-023            0.00   2803.25      4.37
  ND-02-024            0.00   2802.73      3.85
  1                    0.00   2813.55     16.80
  2                    0.00   2805.67      6.80
  3                    0.00   2805.67      6.80
  4                    0.00   2805.67      6.80
  5                    0.00   2805.67      6.80
  6                    0.00   2805.67      6.80
  7                    0.00   2805.67      6.80
  8                    0.00   2800.47      2.39
  9                    0.00   2800.47      3.50
  11                   0.00   2805.67      6.80
  12                   0.00   2805.67      6.80
  13                   0.00   2805.67      6.80
  15                   0.00   2800.47      2.39
  16                   0.00   2800.47      3.50
  18                   0.00   2805.36      6.49
  19                   0.00   2805.36      6.49
  20                   0.00   2805.36      6.49
  21                   0.00   2805.36      6.49
  22                   0.00   2805.36      6.49
  23                   0.00   2800.47      2.39
  24                   0.00   2800.47      3.50
  26                   0.00   2805.36      6.49
  27                   0.00   2805.36      6.49
  28                   0.00   2805.36      6.49
  29                   0.00   2800.47      2.39
  30                   0.00   2800.47      3.50
  32                   0.00   2803.92      5.16
  33                   0.00   2803.92      5.04
  34                   0.00   2803.92      5.04
  35                   0.00   2803.92      5.04
  36                   0.00   2803.92      5.04
  37                   0.00   2800.47      2.39
  38                   0.00   2800.47      3.50
  39                   0.00   2803.92      5.04
  40                   0.00   2803.92      5.04
  41                   0.00   2803.92      5.04
  42                   0.00   2800.47      2.39
  43                   0.00   2800.47      3.50
  47                   0.00   2802.53      3.65
  48                   0.00   2802.46      3.59
  49                   0.00   2802.37      3.50
  50                   0.00   2802.06      3.19
  51                   0.00   2801.98      3.91
  52                   0.00   2802.21      3.33
  53                   0.00   2802.17      3.29
  54                   0.00   2802.04      3.16
  55                   0.00   2801.96      3.88
  56                   0.00   2801.60      4.63
  59                   0.00   2801.62      4.65
  61                   0.00   2805.45      6.58
  62                   0.00   2805.76      6.88
  63                   0.00   2805.45      6.60
  64                   0.00   2805.45      6.58
  65                   0.00   2805.45      6.60
  66                   0.00   2805.76      6.88
  67                   0.00   2805.76      6.88
  68                   0.00   2805.76      6.88
  69                   0.00   2805.76      6.88
  70                   0.00   2800.47      2.39
  71                   0.00   2800.47      3.39
  72                   0.00   2805.76      6.88
  73                   0.00   2805.76      6.88
  74                   0.00   2805.76      6.88
  75                   0.00   2805.76      6.88
  76                   0.00   2800.47      2.39
  78                   0.00   2800.47      3.39
  79                   0.00   2805.76      6.88
  80                   0.00   2805.76      6.88
  81                   0.00   2805.76      6.88
  82                   0.00   2805.76      6.88
  83                   0.00   2800.47      2.39
  84                   0.00   2800.47      3.39
  86                   0.00   2805.76      6.88
  87                   0.00   2805.76      6.88
  88                   0.00   2805.76      6.88
  89                   0.00   2800.47      2.39
  90                   0.00   2800.47      3.39
  92                   0.00   2805.45      6.58
  93                   0.00   2805.45      6.58
  94                   0.00   2805.45      6.58
  95                   0.00   2805.45      6.58
  96                   0.00   2800.47      2.39
  97                   0.00   2800.47      3.39
  99                   0.00   2805.45      6.58
  100                  0.00   2805.45      6.58
  101                  0.00   2805.45      6.58
  102                  0.00   2805.45      6.58
  103                  0.00   2800.47      2.39
  104                  0.00   2800.47      3.39
  106                  0.00   2805.45      6.58
  107                  0.00   2805.45      6.58
  108                  0.00   2805.45      6.58
  109                  0.00   2805.45      6.58
  110                  0.00   2800.47      2.39
  111                  0.00   2800.47      3.39
  113                  0.00   2805.45      6.58
  114                  0.00   2805.45      6.58
  115                  0.00   2805.45      6.58
  116                  0.00   2800.47      2.39
  117                  0.00   2800.47      3.39
  119                  0.00   2805.45      6.58
  120                  0.00   2805.45      6.58
  121                  0.00   2805.45      6.58
  122                  0.00   2805.45      6.58
  123                  0.00   2800.47      2.39
  124                  0.00   2800.47      3.39
  126                  0.00   2805.45      6.58
  127                  0.00   2805.45      6.58
  128                  0.00   2805.45      6.58
  129                  0.00   2805.45      6.58
  130                  0.00   2800.47      3.39
  131                  0.00   2800.47      3.39
  133                  0.00   2805.45      6.58
  134                  0.00   2805.45      6.58
  135                  0.00   2805.45      6.58
  136                  0.00   2805.45      6.58
  137                  0.00   2800.47      3.39
  138                  0.00   2800.47      3.39
  140                  0.00   2805.45      6.58
  141                  0.00   2805.45      6.58
  142                  0.00   2805.45      6.58
  143                  0.00   2800.47      3.39
  144                  0.00   2800.47      3.39
  146                  0.00   2805.45      6.60
  147                  0.00   2805.45      6.60
  148                  0.00   2805.45      6.58
  149                  0.00   2805.45      6.58
  150                  0.00   2800.47      3.39
  151                  0.00   2800.47      3.39
  153                  0.00   2805.45      6.58
  154                  0.00   2805.45      6.58
  155                  0.00   2805.45      6.58
  156                  0.00   2805.45      6.58
  157                  0.00   2800.47      3.39
  158                  0.00   2800.47      3.39
  160                  0.00   2805.45      6.58
  161                  0.00   2805.45      6.58
  162                  0.00   2805.45      6.58
  163                  0.00   2805.45      6.58
  164                  0.00   2800.47      3.39
  165                  0.00   2800.47      3.39
  167                  0.00   2805.45      6.58
  168                  0.00   2805.45      6.58
  169                  0.00   2805.45      6.58
  170                  0.00   2800.47      3.39
  171                  0.00   2800.47      3.39
  173                  0.00   2800.47      3.39
  174                  0.00   2800.47      3.39
  175                  0.00   2800.47      3.39
  176                  0.00   2800.47      3.39
  177                  0.00   2800.47      3.39
  178                  0.00   2800.47      3.39
  179                  0.00   2800.47      3.39
  180                  0.00   2800.47      3.39
  182                  0.00   2800.47      3.39
  183                  0.00   2800.47      3.39
  184                  0.00   2800.47      3.39
  185                  0.00   2800.47      3.39
  188                  0.00   2800.47      3.39
  189                  0.00   2800.47      3.39
  190                  0.00   2800.47      3.39
  191                  0.00   2800.47      3.39
  192                  0.00   2800.47      3.39
  193                  0.00   2800.47      3.39
  194                  0.00   2800.47      3.39
  195                  0.00   2800.47      3.39
  196                  0.00   2800.47      3.39
  197                  0.00   2800.47      3.39
  198                  0.00   2800.47      3.39
  199                  0.00   2800.47      3.39
  200                  0.00   2800.47      3.39
  201                  0.00   2800.47      3.39
  202                  0.00   2800.47      3.39
  203                  0.00   2800.47      3.39
  204                  0.00   2800.47      3.39
  205                  0.00   2800.47      3.39
  206                  0.00   2800.47      3.39
  207                  0.00   2800.47      3.39
  214                  0.00   2800.47      3.39
  215                  0.00   2800.47      3.39
  216                  0.00   2800.47      3.39
  217                  0.00   2800.47      3.39
  218                  0.00   2800.47      3.39
  219                  0.00   2800.47      3.39
  220                  0.00   2800.47      3.39
  221                  0.00   2800.47      3.39
  222                  0.00   2800.47      3.39
  223                  0.00   2800.47      3.39
  224                  0.00   2800.47      3.39
  225                  0.00   2800.47      3.39
  226                  0.00   2800.47      3.39
  227                  0.00   2800.47      3.39
  228                  0.00   2800.47      3.39
  229                  0.00   2800.47      3.39
  238                  0.00   2800.47      3.39
  239                  0.00   2800.47      3.39
  240                  0.00   2800.47      3.39
  241                  0.00   2800.47      3.39
  242                  0.00   2800.47      3.39
  243                  0.00   2800.47      3.39
  244                  0.00   2800.47      3.39
  245                  0.00   2800.47      3.39
  246                  0.00   2800.47      3.39
  247                  0.00   2800.47      3.39
  248                  0.00   2800.47      3.39
  249                  0.00   2800.47      3.39
  250                  0.00   2800.47      3.39
  251                  0.00   2800.47      3.39
  252                  0.00   2800.47      3.39
  253                  0.00   2800.47      3.39
  77                   0.00   2814.85      7.15
  85                   0.00   2814.85      7.15
  46                   0.00   2790.24     -1.09
  91                   0.00   2790.24     -1.09
  98                   0.00   2790.24     -1.09
  105                  0.00   2814.14     22.80
  112                  0.00   2814.14     22.80
  118                  0.00   2814.14     22.80
  125                  0.00   2814.14     22.80
  132                  0.00   2814.14     22.80
  139                  0.00   2814.14     22.80
  145                  0.00   2814.14     16.64
  152                  0.00   2814.14     22.61
  159                  0.00   2814.14     22.61
  236                  0.00   2805.36      6.49
  237                  0.00   2805.45      6.57
  254                  0.00   2814.14     17.53
  255                  0.00   2814.14     17.53
  10                   0.00   2805.37   2805.37
  14                   0.00   2805.45   2805.45
  TAF_01           -2610.00   2815.09      5.00  Tank
  TAF_02           -2610.00   2815.09      5.00  Tank
  FN_02               -0.00   2800.47     -0.00  Reservoir
  FN_01               -0.00   2800.47     -0.00  Reservoir
  FN_04               -0.00   2800.47     -0.00  Reservoir
  FN_03               -0.00   2800.47     -0.00  Reservoir
  FN_06               -0.00   2800.47     -0.00  Reservoir
  FN_05               -0.00   2800.47     -0.00  Reservoir
  FN_08             2620.86   2800.47     -0.00  Reservoir
  FN_07             2599.12   2800.47     -0.00  Reservoir
  FV_01               -0.00   2800.47     -0.00  Reservoir
  FV_02               -0.00   2800.47     -0.00  Reservoir
  FV_05               -0.00   2800.47     -0.00  Reservoir
  FV_09                0.00   2800.47     -0.00  Reservoir
  FV_06                0.00   2800.47     -0.00  Reservoir
  FV_07               -0.00   2800.47     -0.00  Reservoir
  FV_11                0.00   2800.47     -0.00  Reservoir
  FV_10               -0.00   2800.47     -0.00  Reservoir
  FV_08               -0.00   2800.47     -0.00  Reservoir
  FV_12                0.00   2800.47     -0.00  Reservoir
  FV_03               -0.00   2800.47     -0.00  Reservoir
  FV_04               -0.00   2800.47     -0.00  Reservoir
  FV_13               -0.00   2800.47     -0.00  Reservoir
  FV_14               -0.00   2800.47     -0.00  Reservoir
  FV_15               -0.00   2800.47     -0.00  Reservoir
  FV_16               -0.00   2800.47     -0.00  Reservoir
  CDC                 -0.00   2790.24     -0.00  Reservoir
   
   
  Link Results at 0:00:00 hrs:
  ----------------------------------------------
                       Flow  Velocity  Headloss
  Link                  L/s       m/s    /1000m
  ----------------------------------------------
  PL-01-003-004     5220.00      2.05     10.65
  PL-01-004-005     5220.00      2.05      1.42
  PL-01-005-006     2610.00      1.82      1.42
  PL-01-008-009     2610.00      1.82     16.80
  PL-01-009-010     2610.00      1.82     40.05
  PL-01-010-011     2610.00      1.82     19.05
  PL-01-011-012     2610.00      1.82      1.42
  PL-01-013-014        0.01      0.00      0.00
  PL-01-014-015        0.01      0.00      0.00
  PL-01-015-016        0.01      0.00      0.00
  PL-01-016-017        0.01      0.00      0.00
  PL-01-017-018        0.01      0.00      0.00
  PL-01-018-019        0.01      0.00      0.00
  PL-01-020-021        0.00      0.00      0.00
  PL-02-005-006     2610.00      2.31     90.79
  PL-02-006-007     2610.00      2.31     58.95
  PL-02-007-008     2610.00      2.31     30.41
  PL-02-010-011     2610.00      1.82     29.93
  PL-02-011-012     2610.00      1.82     23.78
  PL-02-012-013     2610.00      1.82     25.34
  PL-02-015-016     5219.99      3.63     12.35
  PL-02-016-017     5219.99      3.63    103.35
  PL-02-017-018     5219.99      3.63     63.39
  PL-02-018-019     5219.99      3.63     38.37
  PL-02-019-020     5219.99      3.63     64.12
  PL-02-020-021     5219.99      3.63     16.31
  PL-02-021-022     5219.99      3.63      5.37
  PL-02-022-023     5219.99      3.63    233.89
  PL-02-023-024     5219.99      3.63    173.24
  1                 2610.00      2.31     20.52
  2                 2610.00      2.31     93.02
  3                 2610.00      1.82      1.47
  4                    0.00      0.00      0.00
  6                   -0.00      0.00      0.00
  7                   -0.00      0.00      0.00
  8                    0.00      0.00      0.00
  10                   0.00      0.00      0.00
  11                  -0.00      0.00      0.00
  13                  -0.00      0.00      0.00
  14                  -0.00      0.00      0.00
  15                  -0.00      0.00      0.00
  18                   0.00      0.00      0.00
  19                  -0.00      0.00      0.00
  22                   0.00      0.00      0.00
  23                  -0.00      0.00      0.00
  24                  -0.00      0.00      0.00
  25                   0.00      0.00      0.00
  27                   0.00      0.00      0.00
  28                  -0.00      0.00      0.00
  30                  -0.00      0.00      0.00
  31                  -0.00      0.00      0.00
  32                  -0.00      0.00      0.00
  33                   0.00      0.00      0.00
  38                   0.00      0.00      0.00
  40                   0.00      0.00      0.00
  41                   0.00      0.00      0.00
  42                   0.00      0.00      0.00
  43                  -0.00      0.00      0.00
  44                   0.00      0.00      0.00
  45                   0.00      0.00      0.00
  46                   0.00      0.00      0.00
  47                   0.00      0.00      0.00
  48                  -0.00      0.00      0.00
  49                   0.00      0.00      0.00
  51                5219.99      3.63     41.97
  52                5219.99      3.63     12.83
  53                2620.86      1.82    141.18
  54                2620.86      1.99    331.75
  55                2620.86      1.99    606.81
  56                2599.12      1.81     72.34
  57                2599.12      1.81      2.11
  58                2599.12      1.81     60.81
  59                2599.12      1.97    323.40
  60                2599.12      1.97    596.89
  64                2610.00      1.82     81.11
  66                   0.00      0.00      0.00
  67                   0.00      0.00      0.00
  68                   0.01      0.00      0.00
  69                   0.00      0.00      0.00
  70                   0.00      0.00      0.00
  71                   0.00      0.00      0.00
  72                   0.00      0.00      0.00
  73                   0.00      0.00      0.00
  74                   0.00      0.00      0.00
  75                   0.00      0.00      0.00
  78                   0.00      0.00      0.00
  79                   0.00      0.00      0.00
  80                   0.00      0.00      0.00
  84                   0.00      0.00      0.00
  85                   0.00      0.00      0.00
  86                   0.00      0.00      0.00
  87                   0.00      0.00      0.00
  89                   0.00      0.00      0.00
  90                   0.00      0.00      0.00
  92                   0.00      0.00      0.00
  93                   0.00      0.00      0.00
  94                   0.00      0.00      0.00
  99                   0.00      0.00      0.00
  101                  0.00      0.00      0.00
  103                  0.00      0.00      0.00
  105                  0.00      0.00      0.00
  106                  0.00      0.00      0.00
  107                  0.00      0.00      0.00
  108                  0.00      0.00      0.00
  110                  0.00      0.00      0.00
  113                  0.00      0.00      0.00
  114                  0.00      0.00      0.00
  115                  0.00      0.00      0.00
  117                  0.00      0.00      0.00
  119                  0.00      0.00      0.00
  120                  0.00      0.00      0.00
  121                 -0.00      0.00      0.00
  123                  0.00      0.00      0.00
  126                  0.00      0.00      0.00
  127                  0.00      0.00      0.00
  128                  0.00      0.00      0.00
  130                  0.00      0.00      0.00
  132                  0.00      0.00      0.00
  133                  0.00      0.00      0.00
  134                  0.00      0.00      0.00
  135                  0.00      0.00      0.00
  137                  0.00      0.00      0.00
  139                  0.00      0.00      0.00
  141                  0.00      0.00      0.00
  142                  0.00      0.00      0.00
  144                  0.00      0.00      0.00
  147                 -0.00      0.00      0.00
  148                 -0.00      0.00      0.00
  150                  0.00      0.00      0.00
  154                  0.00      0.00      0.00
  155                  0.00      0.00      0.00
  157                  0.00      0.00      0.00
  159                  0.00      0.00      0.00
  160                  0.00      0.00      0.00
  161                  0.00      0.00      0.00
  162                  0.00      0.00      0.00
  164                  0.00      0.00      0.00
  166                  0.00      0.00      0.00
  167                  0.00      0.00      0.00
  168                  0.00      0.00      0.00
  169                  0.00      0.00      0.00
  171                  0.00      0.00      0.00
  174                  0.00      0.00      0.00
  175                  0.00      0.00      0.00
  177                  0.00      0.00      0.00
  179                  0.00      0.00      0.00
  180                  0.00      0.00      0.00
  182                  0.00      0.00      0.00
  183                  0.00      0.00      0.00
  184                 -0.00      0.00      0.00
  185                 -0.00      0.00      0.00
  186                  0.02      0.00      0.00
  187                  0.02      0.00      0.00
  189                  0.02      0.00      0.00
  190                  0.02      0.00      0.00
  191                  0.02      0.00      0.00
  192                 -0.01      0.00      0.00
  193                 -0.01      0.00      0.00
  194                 -0.01      0.00      0.00
  195                  0.01      0.00      0.00
  196                  0.01      0.00      0.00
  197                  0.01      0.00      0.00
  198                  0.02      0.00      0.00
  199                  0.02      0.00      0.00
  200                  0.02      0.00      0.00
  201                  0.02      0.00      0.00
  202                  0.02      0.00      0.00
  203                  0.02      0.00      0.00
  204                  0.02      0.00      0.00
  205                  0.02      0.00      0.00
  206                  0.02      0.00      0.00
  207                  0.02      0.00      0.00
  208                  0.02      0.00      0.00
  209                  0.02      0.00      0.00
  210                  0.02      0.00      0.00
  211                  0.02      0.00      0.00
  212                  0.02      0.00      0.00
  213                  0.02      0.00      0.00
  214                  0.02      0.00      0.00
  216                  0.02      0.00      0.00
  217                  0.02      0.00      0.00
  218                  0.02      0.00      0.00
  219                  0.02      0.00      0.00
  221                  0.02      0.00      0.00
  222                  0.02      0.00      0.00
  223                  0.02      0.00      0.00
  224                  0.02      0.00      0.00
  225                  0.02      0.00      0.00
  226                  0.02      0.00      0.00
  227                  0.02      0.00      0.00
  228                  0.02      0.00      0.00
  229                  0.02      0.00      0.00
  230                  0.02      0.00      0.00
  231                  0.02      0.00      0.00
  232                  0.02      0.00      0.00
  234                  0.02      0.00      0.00
  235                  0.02      0.00      0.00
  236                  0.02      0.00      0.00
  237                  0.02      0.00      0.00
  238                  0.02      0.00      0.00
  239                  0.02      0.00      0.00
  240                  0.02      0.00      0.00
  241                  0.02      0.00      0.00
  242                  0.02      0.00      0.00
  243                  0.02      0.00      0.00
  244                  0.02      0.00      0.00
  245                  0.02      0.00      0.00
  246                  0.02      0.00      0.00
  247                  0.02      0.00      0.00
  248                  0.02      0.00      0.00
  249                  0.02      0.00      0.00
  250                  0.02      0.00      0.00
  251                  0.02      0.00      0.00
  255                  0.00      0.00      0.00
  256                  0.00      0.00      0.00
  257                 -0.00      0.00      0.00
  258                  0.00      0.00      0.00
  260                 -0.00      0.00      0.00
  261                  0.00      0.00      0.00
  262                  0.00      0.00      0.00
  263                  0.00      0.00      0.00
  264                  0.00      0.00      0.00
  265                 -0.00      0.00      0.00
  267                  0.00      0.00      0.00
  269                 -0.00      0.00      0.00
  270                  0.00      0.00      0.00
  271                  0.00      0.00      0.00
  272                 -0.00      0.00      0.00
  273                  0.00      0.00      0.00
  274                  0.00      0.00      0.00
  275                  0.00      0.00      0.00
  276                  0.00      0.00      0.00
  279                  0.00      0.00      0.00
  280                  0.00      0.00      0.00
  12                   0.00      0.00      0.00
  16                   0.00      0.00      0.00
  50                   0.00      0.00      0.00
  76                  -0.00      0.00      0.00
  82                  -0.00      0.00      0.00
  83                  -0.00      0.00      0.00
  91                   0.00      0.00      0.00
  97                  -0.00      0.00      0.00
  104                  0.02      0.00      0.00
  111                  0.00      0.00      0.00
  112                  0.02      0.00      0.00
  118                  0.02      0.00      0.00
  124                  0.00      0.00      0.00
  131                  0.02      0.00      0.00
  138                  0.00      0.00      0.00
  77                2610.00      1.77     16.16
  5                    0.00      0.00      0.00
  9                   -0.00      0.00      0.00
  17                  -0.00      0.00      0.00
  35                  -0.00      0.00      0.00
  36                  -0.00      0.00      0.00
  37                  -0.00      0.00      0.00
  39                  -0.00      0.00      0.00
  61                   0.00      0.00      0.00
  62                  -0.00      0.00      0.00
  63                  -0.00      0.00      0.00
  65                  -0.00      0.00      0.00
  34                  -0.00      0.00      0.00
  88                2610.00      1.77     37.52
  95                2610.00      1.77     37.52
  96                2610.00      1.77     16.16
  20                2610.00      1.82     61.85
  98                5219.99      3.63      5.23
  100               2610.00      1.82    152.55
  102                  0.01      0.00      0.00
  109               2609.99      1.82      1.40
  116                 -0.00      0.00      0.00
  122                 -0.00      0.00      0.00
  125                 -0.00      0.00      0.00
  21                2609.99      1.82      1.48
  PUMP_01              0.00      0.00      0.00  Pump
  PUMP_02              0.00      0.00      0.00  Pump
  PUMP_03              0.00      0.00      0.00  Pump
  RIKO_01           2610.00      3.32      8.44  FCV
  RIKO_02           2610.00      3.32      7.63  FCV
  BF_GFN_01            0.00      0.00      0.00  TCV
  BF_FN_02             0.00      0.00      0.00  TCV
  BF_FN_01             0.00      0.00      0.00  TCV
  BF_GFN_02            0.00      0.00      0.00  TCV
  BF_FN_04             0.00      0.00      0.00  TCV
  BF_FN_03             0.00      0.00      0.00  TCV
  BF_GFN_03            0.00      0.00      0.00  TCV
  BF_FN_06             0.00      0.00      0.00  TCV
  BF_FN_05             0.00      0.00      0.00  TCV
  BF_FN_08          2620.86      2.32      0.08  TCV
  BF_FN_07          2599.12      2.30      0.08  TCV
  BF_GFN_04         5219.99      3.63      0.20  TCV
  BF_GFV_01            0.00      0.00      0.00  TCV
  BF_FV_01             0.00      0.00      0.00  TCV
  BF_FV_02             0.00      0.00      0.00  TCV
  BF_FV_03             0.00      0.00      0.00  TCV
  BF_FV_04             0.00      0.00      0.00  TCV
  BF_GFV_02            0.00      0.00      0.00  TCV
  BF_FV_05             0.00      0.00      0.00  TCV
  BF_FV_06             0.00      0.00      0.00  TCV
  BF_FV_07             0.00      0.00      0.00  TCV
  BF_FV_08             0.00      0.00      0.00  TCV
  BF_GFV_03            0.00      0.00      0.00  TCV
  BF_FV_09             0.00      0.00      0.00  TCV
  BF_FV_10             0.00      0.00      0.00  TCV
  BF_FV_11             0.00      0.00      0.00  TCV
  BF_FV_12             0.00      0.00      0.00  TCV
  BF_GFV_04            0.00      0.00      0.00  TCV
  BF_FV_13             0.00      0.00      0.00  TCV
  BF_FV_14             0.00      0.00      0.00  TCV
  BF_FV_15             0.00      0.00      0.00  TCV
  BF_FV_16             0.00      0.00      0.00  TCV
  BF_CONECT         2609.99      2.31      0.08  TCV
   
   
  Node Results at 0:01:00 hrs:
  ----------------------------------------------
                     Demand      Head  Pressure
  Node                  L/s         m         m
  ----------------------------------------------
  ND-01-003            0.00   2814.56      7.50
  ND-01-004            0.00   2814.37     17.62
  ND-01-005            0.00   2814.28     17.53
  ND-01-006            0.00   2814.27     17.52
  ND-01-007            0.00   2814.20     17.38
  ND-01-008            0.00   2805.98      9.16
  ND-01-009            0.00   2805.91      8.98
  ND-01-010            0.00   2805.84      8.56
  ND-01-011            0.00   2805.76      6.86
  ND-01-012            0.00   2805.76      6.88
  ND-01-013            0.00   2805.45      6.60
  ND-01-014            0.00   2805.45      6.56
  ND-01-015            0.00   2805.45      6.60
  ND-01-016            0.00   2805.45      8.85
  ND-01-017            0.00   2805.45      8.79
  ND-01-018            0.00   2805.45      6.57
  ND-01-019            0.00   2805.45      6.57
  ND-01-020            0.00   2805.45      6.61
  ND-01-021            0.00   2805.45      6.58
  ND-02-006            0.00   2813.92     17.31
  ND-02-007            0.00   2813.71     17.10
  ND-02-008            0.00   2813.44     16.83
  ND-02-009            0.00   2813.30     16.55
  ND-02-010            0.00   2805.90      9.14
  ND-02-011            0.00   2805.83      9.07
  ND-02-012            0.00   2805.75      8.15
  ND-02-013            0.00   2805.68      6.80
  ND-02-015            0.00   2805.36      6.49
  ND-02-016            0.00   2805.27      6.39
  ND-02-017            0.00   2804.97      6.09
  ND-02-018            0.00   2804.66      8.00
  ND-02-019            0.00   2804.33      7.68
  ND-02-020            0.00   2804.03      5.15
  ND-02-021            0.00   2803.95      5.07
  ND-02-022            0.00   2803.92      5.04
  ND-02-023            0.00   2803.25      4.37
  ND-02-024            0.00   2802.73      3.85
  1                    0.00   2813.33     16.58
  2                    0.00   2805.67      6.80
  3                    0.00   2805.67      6.80
  4                    0.00   2805.67      6.80
  5                    0.00   2805.67      6.80
  6                    0.00   2805.67      6.80
  7                    0.00   2805.67      6.80
  8                    0.00   2800.47      2.39
  9                    0.00   2800.47      3.50
  11                   0.00   2805.67      6.80
  12                   0.00   2805.67      6.80
  13                   0.00   2805.67      6.80
  15                   0.00   2800.47      2.39
  16                   0.00   2800.47      3.50
  18                   0.00   2805.36      6.49
  19                   0.00   2805.36      6.49
  20                   0.00   2805.36      6.49
  21                   0.00   2805.36      6.49
  22                   0.00   2805.36      6.49
  23                   0.00   2800.47      2.39
  24                   0.00   2800.47      3.50
  26                   0.00   2805.36      6.49
  27                   0.00   2805.36      6.49
  28                   0.00   2805.36      6.49
  29                   0.00   2800.47      2.39
  30                   0.00   2800.47      3.50
  32                   0.00   2803.92      5.16
  33                   0.00   2803.92      5.04
  34                   0.00   2803.92      5.04
  35                   0.00   2803.92      5.04
  36                   0.00   2803.92      5.04
  37                   0.00   2800.47      2.39
  38                   0.00   2800.47      3.50
  39                   0.00   2803.92      5.04
  40                   0.00   2803.92      5.04
  41                   0.00   2803.92      5.04
  42                   0.00   2800.47      2.39
  43                   0.00   2800.47      3.50
  47                   0.00   2802.53      3.65
  48                   0.00   2802.46      3.59
  49                   0.00   2802.37      3.50
  50                   0.00   2802.06      3.19
  51                   0.00   2801.98      3.91
  52                   0.00   2802.21      3.33
  53                   0.00   2802.17      3.29
  54                   0.00   2802.04      3.16
  55                   0.00   2801.96      3.88
  56                   0.00   2801.60      4.63
  59                   0.00   2801.62      4.65
  61                   0.00   2805.45      6.58
  62                   0.00   2805.76      6.88
  63                   0.00   2805.45      6.60
  64                   0.00   2805.45      6.58
  65                   0.00   2805.45      6.60
  66                   0.00   2805.76      6.88
  67                   0.00   2805.76      6.88
  68                   0.00   2805.76      6.88
  69                   0.00   2805.76      6.88
  70                   0.00   2800.47      2.39
  71                   0.00   2800.47      3.39
  72                   0.00   2805.76      6.88
  73                   0.00   2805.76      6.88
  74                   0.00   2805.76      6.88
  75                   0.00   2805.76      6.88
  76                   0.00   2800.47      2.39
  78                   0.00   2800.47      3.39
  79                   0.00   2805.76      6.88
  80                   0.00   2805.76      6.88
  81                   0.00   2805.76      6.88
  82                   0.00   2805.76      6.88
  83                   0.00   2800.47      2.39
  84                   0.00   2800.47      3.39
  86                   0.00   2805.76      6.88
  87                   0.00   2805.76      6.88
  88                   0.00   2805.76      6.88
  89                   0.00   2800.47      2.39
  90                   0.00   2800.47      3.39
  92                   0.00   2805.45      6.58
  93                   0.00   2805.45      6.58
  94                   0.00   2805.45      6.58
  95                   0.00   2805.45      6.58
  96                   0.00   2800.47      2.39
  97                   0.00   2800.47      3.39
  99                   0.00   2805.45      6.58
  100                  0.00   2805.45      6.58
  101                  0.00   2805.45      6.58
  102                  0.00   2805.45      6.58
  103                  0.00   2800.47      2.39
  104                  0.00   2800.47      3.39
  106                  0.00   2805.45      6.58
  107                  0.00   2805.45      6.58
  108                  0.00   2805.45      6.58
  109                  0.00   2805.45      6.58
  110                  0.00   2800.47      2.39
  111                  0.00   2800.47      3.39
  113                  0.00   2805.45      6.58
  114                  0.00   2805.45      6.58
  115                  0.00   2805.45      6.58
  116                  0.00   2800.47      2.39
  117                  0.00   2800.47      3.39
  119                  0.00   2805.45      6.58
  120                  0.00   2805.45      6.58
  121                  0.00   2805.45      6.58
  122                  0.00   2805.45      6.58
  123                  0.00   2800.47      2.39
  124                  0.00   2800.47      3.39
  126                  0.00   2805.45      6.58
  127                  0.00   2805.45      6.58
  128                  0.00   2805.45      6.58
  129                  0.00   2805.45      6.58
  130                  0.00   2800.47      3.39
  131                  0.00   2800.47      3.39
  133                  0.00   2805.45      6.58
  134                  0.00   2805.45      6.58
  135                  0.00   2805.45      6.58
  136                  0.00   2805.45      6.58
  137                  0.00   2800.47      3.39
  138                  0.00   2800.47      3.39
  140                  0.00   2805.45      6.58
  141                  0.00   2805.45      6.58
  142                  0.00   2805.45      6.58
  143                  0.00   2800.47      3.39
  144                  0.00   2800.47      3.39
  146                  0.00   2805.45      6.60
  147                  0.00   2805.45      6.60
  148                  0.00   2805.45      6.58
  149                  0.00   2805.45      6.58
  150                  0.00   2800.47      3.39
  151                  0.00   2800.47      3.39
  153                  0.00   2805.45      6.58
  154                  0.00   2805.45      6.58
  155                  0.00   2805.45      6.58
  156                  0.00   2805.45      6.58
  157                  0.00   2800.47      3.39
  158                  0.00   2800.47      3.39
  160                  0.00   2805.45      6.58
  161                  0.00   2805.45      6.58
  162                  0.00   2805.45      6.58
  163                  0.00   2805.45      6.58
  164                  0.00   2800.47      3.39
  165                  0.00   2800.47      3.39
  167                  0.00   2805.45      6.58
  168                  0.00   2805.45      6.58
  169                  0.00   2805.45      6.58
  170                  0.00   2800.47      3.39
  171                  0.00   2800.47      3.39
  173                  0.00   2800.47      3.39
  174                  0.00   2800.47      3.39
  175                  0.00   2800.47      3.39
  176                  0.00   2800.47      3.39
  177                  0.00   2800.47      3.39
  178                  0.00   2800.47      3.39
  179                  0.00   2800.47      3.39
  180                  0.00   2800.47      3.39
  182                  0.00   2800.47      3.39
  183                  0.00   2800.47      3.39
  184                  0.00   2800.47      3.39
  185                  0.00   2800.47      3.39
  188                  0.00   2800.47      3.39
  189                  0.00   2800.47      3.39
  190                  0.00   2800.47      3.39
  191                  0.00   2800.47      3.39
  192                  0.00   2800.47      3.39
  193                  0.00   2800.47      3.39
  194                  0.00   2800.47      3.39
  195                  0.00   2800.47      3.39
  196                  0.00   2800.47      3.39
  197                  0.00   2800.47      3.39
  198                  0.00   2800.47      3.39
  199                  0.00   2800.47      3.39
  200                  0.00   2800.47      3.39
  201                  0.00   2800.47      3.39
  202                  0.00   2800.47      3.39
  203                  0.00   2800.47      3.39
  204                  0.00   2800.47      3.39
  205                  0.00   2800.47      3.39
  206                  0.00   2800.47      3.39
  207                  0.00   2800.47      3.39
  214                  0.00   2800.47      3.39
  215                  0.00   2800.47      3.39
  216                  0.00   2800.47      3.39
  217                  0.00   2800.47      3.39
  218                  0.00   2800.47      3.39
  219                  0.00   2800.47      3.39
  220                  0.00   2800.47      3.39
  221                  0.00   2800.47      3.39
  222                  0.00   2800.47      3.39
  223                  0.00   2800.47      3.39
  224                  0.00   2800.47      3.39
  225                  0.00   2800.47      3.39
  226                  0.00   2800.47      3.39
  227                  0.00   2800.47      3.39
  228                  0.00   2800.47      3.39
  229                  0.00   2800.47      3.39
  238                  0.00   2800.47      3.39
  239                  0.00   2800.47      3.39
  240                  0.00   2800.47      3.39
  241                  0.00   2800.47      3.39
  242                  0.00   2800.47      3.39
  243                  0.00   2800.47      3.39
  244                  0.00   2800.47      3.39
  245                  0.00   2800.47      3.39
  246                  0.00   2800.47      3.39
  247                  0.00   2800.47      3.39
  248                  0.00   2800.47      3.39
  249                  0.00   2800.47      3.39
  250                  0.00   2800.47      3.39
  251                  0.00   2800.47      3.39
  252                  0.00   2800.47      3.39
  253                  0.00   2800.47      3.39
  77                   0.00   2814.63      6.93
  85                   0.00   2814.63      6.93
  46                   0.00   2790.24     -1.09
  91                   0.00   2790.24     -1.09
  98                   0.00   2790.24     -1.09
  105                  0.00   2813.92     22.58
  112                  0.00   2813.92     22.58
  118                  0.00   2813.92     22.58
  125                  0.00   2813.92     22.58
  132                  0.00   2813.92     22.58
  139                  0.00   2813.92     22.58
  145                  0.00   2813.92     16.42
  152                  0.00   2813.92     22.39
  159                  0.00   2813.92     22.39
  236                  0.00   2805.36      6.49
  237                  0.00   2805.45      6.57
  254                  0.00   2813.92     17.31
  255                  0.00   2813.92     17.31
  10                   0.00   2805.37   2805.37
  14                   0.00   2805.45   2805.45
  TAF_01           -2610.00   2814.87      4.78  Tank
  TAF_02           -2610.00   2814.87      4.78  Tank
  FN_02               -0.00   2800.47     -0.00  Reservoir
  FN_01               -0.00   2800.47     -0.00  Reservoir
  FN_04               -0.00   2800.47     -0.00  Reservoir
  FN_03               -0.00   2800.47     -0.00  Reservoir
  FN_06               -0.00   2800.47     -0.00  Reservoir
  FN_05               -0.00   2800.47     -0.00  Reservoir
  FN_08             2620.86   2800.47     -0.00  Reservoir
  FN_07             2599.12   2800.47     -0.00  Reservoir
  FV_01               -0.00   2800.47     -0.00  Reservoir
  FV_02               -0.00   2800.47     -0.00  Reservoir
  FV_05               -0.00   2800.47     -0.00  Reservoir
  FV_09                0.00   2800.47     -0.00  Reservoir
  FV_06               -0.00   2800.47     -0.00  Reservoir
  FV_07                0.00   2800.47     -0.00  Reservoir
  FV_11               -0.00   2800.47     -0.00  Reservoir
  FV_10                0.00   2800.47     -0.00  Reservoir
  FV_08               -0.00   2800.47     -0.00  Reservoir
  FV_12               -0.00   2800.47     -0.00  Reservoir
  FV_03               -0.00   2800.47     -0.00  Reservoir
  FV_04               -0.00   2800.47     -0.00  Reservoir
  FV_13               -0.00   2800.47     -0.00  Reservoir
  FV_14               -0.00   2800.47     -0.00  Reservoir
  FV_15               -0.00   2800.47     -0.00  Reservoir
  FV_16               -0.00   2800.47     -0.00  Reservoir
  CDC                 -0.00   2790.24     -0.00  Reservoir
   
   
  Link Results at 0:01:00 hrs:
  ----------------------------------------------
                       Flow  Velocity  Headloss
  Link                  L/s       m/s    /1000m
  ----------------------------------------------
  PL-01-003-004     5220.00      2.05     10.65
  PL-01-004-005     5220.00      2.05      1.42
  PL-01-005-006     2610.00      1.82      1.42
  PL-01-008-009     2610.00      1.82     16.80
  PL-01-009-010     2610.00      1.82     40.05
  PL-01-010-011     2610.00      1.82     19.05
  PL-01-011-012     2610.00      1.82      1.42
  PL-01-013-014        0.01      0.00      0.00
  PL-01-014-015        0.00      0.00      0.00
  PL-01-015-016        0.00      0.00      0.00
  PL-01-016-017        0.00      0.00      0.00
  PL-01-017-018        0.00      0.00      0.00
  PL-01-018-019        0.00      0.00      0.00
  PL-01-020-021        0.00      0.00      0.00
  PL-02-005-006     2610.00      2.31     90.71
  PL-02-006-007     2610.00      2.31     58.95
  PL-02-007-008     2610.00      2.31     30.41
  PL-02-010-011     2610.00      1.82     29.93
  PL-02-011-012     2610.00      1.82     23.78
  PL-02-012-013     2610.00      1.82     25.34
  PL-02-015-016     5219.99      3.63     12.35
  PL-02-016-017     5219.99      3.63    103.35
  PL-02-017-018     5219.99      3.63     63.39
  PL-02-018-019     5219.99      3.63     38.37
  PL-02-019-020     5219.99      3.63     64.12
  PL-02-020-021     5219.99      3.63     16.31
  PL-02-021-022     5219.99      3.63      5.37
  PL-02-022-023     5219.98      3.63    233.89
  PL-02-023-024     5219.98      3.63    173.24
  1                 2610.00      2.31     20.77
  2                 2610.00      2.31     93.02
  3                 2610.00      1.82      1.47
  4                    0.00      0.00      0.00
  6                    0.00      0.00      0.00
  7                    0.00      0.00      0.00
  8                    0.00      0.00      0.00
  10                   0.00      0.00      0.00
  11                  -0.00      0.00      0.00
  13                  -0.00      0.00      0.00
  14                  -0.00      0.00      0.00
  15                  -0.00      0.00      0.00
  18                   0.00      0.00      0.00
  19                  -0.00      0.00      0.00
  22                   0.00      0.00      0.00
  23                   0.00      0.00      0.00
  24                   0.00      0.00      0.00
  25                   0.00      0.00      0.00
  27                   0.00      0.00      0.00
  28                  -0.00      0.00      0.00
  30                  -0.00      0.00      0.00
  31                  -0.00      0.00      0.00
  32                   0.00      0.00      0.00
  33                   0.00      0.00      0.00
  38                   0.00      0.00      0.00
  40                   0.00      0.00      0.00
  41                   0.00      0.00      0.00
  42                   0.00      0.00      0.00
  43                  -0.00      0.00      0.00
  44                   0.00      0.00      0.00
  45                   0.00      0.00      0.00
  46                  -0.00      0.00      0.00
  47                   0.00      0.00      0.00
  48                  -0.00      0.00      0.00
  49                   0.00      0.00      0.00
  51                5219.98      3.63     41.97
  52                5219.98      3.63     12.83
  53                2620.86      1.82    141.18
  54                2620.86      1.99    331.75
  55                2620.86      1.99    606.81
  56                2599.12      1.81     72.34
  57                2599.12      1.81      2.11
  58                2599.12      1.81     60.81
  59                2599.12      1.97    323.40
  60                2599.12      1.97    596.89
  64                2610.00      1.82     80.76
  66                   0.00      0.00      0.00
  67                   0.00      0.00      0.00
  68                   0.00      0.00      0.00
  69                   0.00      0.00      0.00
  70                   0.00      0.00      0.00
  71                   0.00      0.00      0.00
  72                   0.00      0.00      0.00
  73                   0.00      0.00      0.00
  74                   0.00      0.00      0.00
  75                   0.00      0.00      0.00
  78                   0.00      0.00      0.00
  79                   0.00      0.00      0.00
  80                   0.00      0.00      0.00
  84                   0.00      0.00      0.00
  85                   0.00      0.00      0.00
  86                   0.00      0.00      0.00
  87                   0.00      0.00      0.00
  89                   0.00      0.00      0.00
  90                   0.00      0.00      0.00
  92                   0.00      0.00      0.00
  93                   0.00      0.00      0.00
  94                   0.00      0.00      0.00
  99                   0.00      0.00      0.00
  101                  0.00      0.00      0.00
  103                  0.00      0.00      0.00
  105                  0.00      0.00      0.00
  106                  0.00      0.00      0.00
  107                  0.00      0.00      0.00
  108                  0.00      0.00      0.00
  110                  0.00      0.00      0.00
  113                  0.00      0.00      0.00
  114                  0.00      0.00      0.00
  115                  0.00      0.00      0.00
  117                  0.00      0.00      0.00
  119                  0.00      0.00      0.00
  120                  0.00      0.00      0.00
  121                 -0.00      0.00      0.00
  123                  0.00      0.00      0.00
  126                  0.00      0.00      0.00
  127                  0.00      0.00      0.00
  128                  0.00      0.00      0.00
  130                  0.00      0.00      0.00
  132                  0.00      0.00      0.00
  133                  0.00      0.00      0.00
  134                  0.00      0.00      0.00
  135                  0.00      0.00      0.00
  137                  0.00      0.00      0.00
  139                  0.00      0.00      0.00
  141                  0.00      0.00      0.00
  142                  0.00      0.00      0.00
  144                  0.00      0.00      0.00
  147                  0.00      0.00      0.00
  148                 -0.00      0.00      0.00
  150                  0.00      0.00      0.00
  154                  0.00      0.00      0.00
  155                  0.00      0.00      0.00
  157                  0.00      0.00      0.00
  159                  0.00      0.00      0.00
  160                  0.00      0.00      0.00
  161                  0.00      0.00      0.00
  162                  0.00      0.00      0.00
  164                  0.00      0.00      0.00
  166                 -0.00      0.00      0.00
  167                 -0.00      0.00      0.00
  168                  0.00      0.00      0.00
  169                  0.00      0.00      0.00
  171                  0.00      0.00      0.00
  174                 -0.00      0.00      0.00
  175                  0.00      0.00      0.00
  177                  0.00      0.00      0.00
  179                  0.00      0.00      0.00
  180                  0.00      0.00      0.00
  182                  0.00      0.00      0.00
  183                  0.00      0.00      0.00
  184                 -0.00      0.00      0.00
  185                 -0.00      0.00      0.00
  186                  0.01      0.00      0.00
  187                  0.01      0.00      0.00
  189                  0.01      0.00      0.00
  190                  0.01      0.00      0.00
  191                  0.01      0.00      0.00
  192                 -0.00      0.00      0.00
  193                 -0.00      0.00      0.00
  194                 -0.00      0.00      0.00
  195                  0.00      0.00      0.00
  196                  0.00      0.00      0.00
  197                  0.00      0.00      0.00
  198                  0.01      0.00      0.00
  199                  0.01      0.00      0.00
  200                  0.01      0.00      0.00
  201                  0.01      0.00      0.00
  202                  0.01      0.00      0.00
  203                  0.01      0.00      0.00
  204                  0.01      0.00      0.00
  205                  0.01      0.00      0.00
  206                  0.01      0.00      0.00
  207                  0.01      0.00      0.00
  208                  0.01      0.00      0.00
  209                  0.01      0.00      0.00
  210                  0.01      0.00      0.00
  211                  0.01      0.00      0.00
  212                  0.01      0.00      0.00
  213                  0.01      0.00      0.00
  214                  0.01      0.00      0.00
  216                  0.01      0.00      0.00
  217                  0.01      0.00      0.00
  218                  0.01      0.00      0.00
  219                  0.01      0.00      0.00
  221                  0.01      0.00      0.00
  222                  0.01      0.00      0.00
  223                  0.01      0.00      0.00
  224                  0.01      0.00      0.00
  225                  0.01      0.00      0.00
  226                  0.01      0.00      0.00
  227                  0.01      0.00      0.00
  228                  0.01      0.00      0.00
  229                  0.01      0.00      0.00
  230                  0.01      0.00      0.00
  231                  0.01      0.00      0.00
  232                  0.01      0.00      0.00
  234                  0.01      0.00      0.00
  235                  0.01      0.00      0.00
  236                  0.01      0.00      0.00
  237                  0.01      0.00      0.00
  238                  0.01      0.00      0.00
  239                  0.01      0.00      0.00
  240                  0.01      0.00      0.00
  241                  0.01      0.00      0.00
  242                  0.01      0.00      0.00
  243                  0.01      0.00      0.00
  244                  0.01      0.00      0.00
  245                  0.01      0.00      0.00
  246                  0.01      0.00      0.00
  247                  0.01      0.00      0.00
  248                  0.01      0.00      0.00
  249                  0.01      0.00      0.00
  250                  0.01      0.00      0.00
  251                  0.01      0.00      0.00
  255                  0.00      0.00      0.00
  256                  0.00      0.00      0.00
  257                 -0.00      0.00      0.00
  258                  0.00      0.00      0.00
  260                 -0.00      0.00      0.00
  261                  0.00      0.00      0.00
  262                  0.00      0.00      0.00
  263                  0.00      0.00      0.00
  264                  0.00      0.00      0.00
  265                 -0.00      0.00      0.00
  267                  0.00      0.00      0.00
  269                 -0.00      0.00      0.00
  270                  0.00      0.00      0.00
  271                  0.00      0.00      0.00
  272                 -0.00      0.00      0.00
  273                  0.00      0.00      0.00
  274                  0.00      0.00      0.00
  275                  0.00      0.00      0.00
  276                  0.00      0.00      0.00
  279                  0.00      0.00      0.00
  280                  0.00      0.00      0.00
  12                   0.00      0.00      0.00
  16                   0.00      0.00      0.00
  50                  -0.00      0.00      0.00
  76                  -0.00      0.00      0.00
  82                  -0.00      0.00      0.00
  83                  -0.00      0.00      0.00
  91                   0.00      0.00      0.00
  97                   0.00      0.00      0.00
  104                  0.01      0.00      0.00
  111                  0.00      0.00      0.00
  112                  0.01      0.00      0.00
  118                  0.01      0.00      0.00
  124                  0.00      0.00      0.00
  131                  0.01      0.00      0.00
  138                  0.00      0.00      0.00
  77                2610.00      1.77     16.23
  5                    0.00      0.00      0.00
  9                   -0.00      0.00      0.00
  17                  -0.00      0.00      0.00
  35                  -0.00      0.00      0.00
  36                  -0.00      0.00      0.00
  37                  -0.00      0.00      0.00
  39                  -0.00      0.00      0.00
  61                   0.00      0.00      0.00
  62                  -0.00      0.00      0.00
  63                  -0.00      0.00      0.00
  65                  -0.00      0.00      0.00
  34                  -0.00      0.00      0.00
  88                2610.00      1.77     37.52
  95                2610.00      1.77     37.52
  96                2610.00      1.77     16.23
  20                2610.00      1.82     61.85
  98                5219.99      3.63      5.23
  100               2610.00      1.82    152.55
  102                  0.01      0.00      0.00
  109               2609.99      1.82      1.40
  116                 -0.00      0.00      0.00
  122                 -0.00      0.00      0.00
  125                 -0.00      0.00      0.00
  21                2609.99      1.82      1.40
  PUMP_01              0.00      0.00      0.00  Pump
  PUMP_02              0.00      0.00      0.00  Pump
  PUMP_03              0.00      0.00      0.00  Pump
  RIKO_01           2610.00      3.32      8.22  FCV
  RIKO_02           2610.00      3.32      7.41  FCV
  BF_GFN_01            0.00      0.00      0.00  TCV
  BF_FN_02             0.00      0.00      0.00  TCV
  BF_FN_01             0.00      0.00      0.00  TCV
  BF_GFN_02            0.00      0.00      0.00  TCV
  BF_FN_04             0.00      0.00      0.00  TCV
  BF_FN_03             0.00      0.00      0.00  TCV
  BF_GFN_03            0.00      0.00      0.00  TCV
  BF_FN_06             0.00      0.00      0.00  TCV
  BF_FN_05             0.00      0.00      0.00  TCV
  BF_FN_08          2620.86      2.32      0.08  TCV
  BF_FN_07          2599.12      2.30      0.08  TCV
  BF_GFN_04         5219.98      3.63      0.20  TCV
  BF_GFV_01            0.00      0.00      0.00  TCV
  BF_FV_01             0.00      0.00      0.00  TCV
  BF_FV_02             0.00      0.00      0.00  TCV
  BF_FV_03             0.00      0.00      0.00  TCV
  BF_FV_04             0.00      0.00      0.00  TCV
  BF_GFV_02            0.00      0.00      0.00  TCV
  BF_FV_05             0.00      0.00      0.00  TCV
  BF_FV_06             0.00      0.00      0.00  TCV
  BF_FV_07             0.00      0.00      0.00  TCV
  BF_FV_08             0.00      0.00      0.00  TCV
  BF_GFV_03            0.00      0.00      0.00  TCV
  BF_FV_09             0.00      0.00      0.00  TCV
  BF_FV_10             0.00      0.00      0.00  TCV
  BF_FV_11             0.00      0.00      0.00  TCV
  BF_FV_12             0.00      0.00      0.00  TCV
  BF_GFV_04            0.00      0.00      0.00  TCV
  BF_FV_13             0.00      0.00      0.00  TCV
  BF_FV_14             0.00      0.00      0.00  TCV
  BF_FV_15             0.00      0.00      0.00  TCV
  BF_FV_16             0.00      0.00      0.00  TCV
  BF_CONECT         2609.99      2.31      0.08  TCV
   
   
  Node Results at 0:02:00 hrs:
  ----------------------------------------------
                     Demand      Head  Pressure
  Node                  L/s         m         m
  ----------------------------------------------
  ND-01-003            0.00   2814.34      7.28
  ND-01-004            0.00   2814.15     17.40
  ND-01-005            0.00   2814.06     17.31
  ND-01-006            0.00   2814.05     17.30
  ND-01-007            0.00   2813.98     17.16
  ND-01-008            0.00   2805.98      9.16
  ND-01-009            0.00   2805.91      8.98
  ND-01-010            0.00   2805.84      8.56
  ND-01-011            0.00   2805.76      6.86
  ND-01-012            0.00   2805.76      6.88
  ND-01-013            0.00   2805.45      6.60
  ND-01-014            0.00   2805.45      6.56
  ND-01-015            0.00   2805.45      6.60
  ND-01-016            0.00   2805.45      8.85
  ND-01-017            0.00   2805.45      8.79
  ND-01-018            0.00   2805.45      6.57
  ND-01-019            0.00   2805.45      6.57
  ND-01-020            0.00   2805.45      6.61
  ND-01-021            0.00   2805.45      6.58
  ND-02-006            0.00   2813.70     17.09
  ND-02-007            0.00   2813.48     16.87
  ND-02-008            0.00   2813.22     16.61
  ND-02-009            0.00   2813.08     16.33
  ND-02-010            0.00   2805.90      9.14
  ND-02-011            0.00   2805.83      9.07
  ND-02-012            0.00   2805.75      8.15
  ND-02-013            0.00   2805.68      6.80
  ND-02-015            0.00   2805.36      6.49
  ND-02-016            0.00   2805.27      6.39
  ND-02-017            0.00   2804.97      6.09
  ND-02-018            0.00   2804.66      8.00
  ND-02-019            0.00   2804.33      7.68
  ND-02-020            0.00   2804.03      5.15
  ND-02-021            0.00   2803.95      5.07
  ND-02-022            0.00   2803.92      5.04
  ND-02-023            0.00   2803.25      4.37
  ND-02-024            0.00   2802.73      3.85
  1                    0.00   2813.11     16.35
  2                    0.00   2805.67      6.80
  3                    0.00   2805.67      6.80
  4                    0.00   2805.67      6.80
  5                    0.00   2805.67      6.80
  6                    0.00   2805.67      6.80
  7                    0.00   2805.67      6.80
  8                    0.00   2800.47      2.39
  9                    0.00   2800.47      3.50
  11                   0.00   2805.67      6.80
  12                   0.00   2805.67      6.80
  13                   0.00   2805.67      6.80
  15                   0.00   2800.47      2.39
  16                   0.00   2800.47      3.50
  18                   0.00   2805.36      6.49
  19                   0.00   2805.36      6.49
  20                   0.00   2805.36      6.49
  21                   0.00   2805.36      6.49
  22                   0.00   2805.36      6.49
  23                   0.00   2800.47      2.39
  24                   0.00   2800.47      3.50
  26                   0.00   2805.36      6.49
  27                   0.00   2805.36      6.49
  28                   0.00   2805.36      6.49
  29                   0.00   2800.47      2.39
  30                   0.00   2800.47      3.50
  32                   0.00   2803.92      5.16
  33                   0.00   2803.92      5.04
  34                   0.00   2803.92      5.04
  35                   0.00   2803.92      5.04
  36                   0.00   2803.92      5.04
  37                   0.00   2800.47      2.39
  38                   0.00   2800.47      3.50
  39                   0.00   2803.92      5.04
  40                   0.00   2803.92      5.04
  41                   0.00   2803.92      5.04
  42                   0.00   2800.47      2.39
  43                   0.00   2800.47      3.50
  47                   0.00   2802.53      3.65
  48                   0.00   2802.46      3.59
  49                   0.00   2802.37      3.50
  50                   0.00   2802.06      3.19
  51                   0.00   2801.98      3.91
  52                   0.00   2802.21      3.33
  53                   0.00   2802.17      3.29
  54                   0.00   2802.04      3.16
  55                   0.00   2801.96      3.88
  56                   0.00   2801.60      4.63
  59                   0.00   2801.62      4.65
  61                   0.00   2805.45      6.58
  62                   0.00   2805.76      6.88
  63                   0.00   2805.45      6.60
  64                   0.00   2805.45      6.58
  65                   0.00   2805.45      6.60
  66                   0.00   2805.76      6.88
  67                   0.00   2805.76      6.88
  68                   0.00   2805.76      6.88
  69                   0.00   2805.76      6.88
  70                   0.00   2800.47      2.39
  71                   0.00   2800.47      3.39
  72                   0.00   2805.76      6.88
  73                   0.00   2805.76      6.88
  74                   0.00   2805.76      6.88
  75                   0.00   2805.76      6.88
  76                   0.00   2800.47      2.39
  78                   0.00   2800.47      3.39
  79                   0.00   2805.76      6.88
  80                   0.00   2805.76      6.88
  81                   0.00   2805.76      6.88
  82                   0.00   2805.76      6.88
  83                   0.00   2800.47      2.39
  84                   0.00   2800.47      3.39
  86                   0.00   2805.76      6.88
  87                   0.00   2805.76      6.88
  88                   0.00   2805.76      6.88
  89                   0.00   2800.47      2.39
  90                   0.00   2800.47      3.39
  92                   0.00   2805.45      6.58
  93                   0.00   2805.45      6.58
  94                   0.00   2805.45      6.58
  95                   0.00   2805.45      6.58
  96                   0.00   2800.47      2.39
  97                   0.00   2800.47      3.39
  99                   0.00   2805.45      6.58
  100                  0.00   2805.45      6.58
  101                  0.00   2805.45      6.58
  102                  0.00   2805.45      6.58
  103                  0.00   2800.47      2.39
  104                  0.00   2800.47      3.39
  106                  0.00   2805.45      6.58
  107                  0.00   2805.45      6.58
  108                  0.00   2805.45      6.58
  109                  0.00   2805.45      6.58
  110                  0.00   2800.47      2.39
  111                  0.00   2800.47      3.39
  113                  0.00   2805.45      6.58
  114                  0.00   2805.45      6.58
  115                  0.00   2805.45      6.58
  116                  0.00   2800.47      2.39
  117                  0.00   2800.47      3.39
  119                  0.00   2805.45      6.58
  120                  0.00   2805.45      6.58
  121                  0.00   2805.45      6.58
  122                  0.00   2805.45      6.58
  123                  0.00   2800.47      2.39
  124                  0.00   2800.47      3.39
  126                  0.00   2805.45      6.58
  127                  0.00   2805.45      6.58
  128                  0.00   2805.45      6.58
  129                  0.00   2805.45      6.58
  130                  0.00   2800.47      3.39
  131                  0.00   2800.47      3.39
  133                  0.00   2805.45      6.58
  134                  0.00   2805.45      6.58
  135                  0.00   2805.45      6.58
  136                  0.00   2805.45      6.58
  137                  0.00   2800.47      3.39
  138                  0.00   2800.47      3.39
  140                  0.00   2805.45      6.58
  141                  0.00   2805.45      6.58
  142                  0.00   2805.45      6.58
  143                  0.00   2800.47      3.39
  144                  0.00   2800.47      3.39
  146                  0.00   2805.45      6.60
  147                  0.00   2805.45      6.60
  148                  0.00   2805.45      6.58
  149                  0.00   2805.45      6.58
  150                  0.00   2800.47      3.39
  151                  0.00   2800.47      3.39
  153                  0.00   2805.45      6.58
  154                  0.00   2805.45      6.58
  155                  0.00   2805.45      6.58
  156                  0.00   2805.45      6.58
  157                  0.00   2800.47      3.39
  158                  0.00   2800.47      3.39
  160                  0.00   2805.45      6.58
  161                  0.00   2805.45      6.58
  162                  0.00   2805.45      6.58
  163                  0.00   2805.45      6.58
  164                  0.00   2800.47      3.39
  165                  0.00   2800.47      3.39
  167                  0.00   2805.45      6.58
  168                  0.00   2805.45      6.58
  169                  0.00   2805.45      6.58
  170                  0.00   2800.47      3.39
  171                  0.00   2800.47      3.39
  173                  0.00   2800.47      3.39
  174                  0.00   2800.47      3.39
  175                  0.00   2800.47      3.39
  176                  0.00   2800.47      3.39
  177                  0.00   2800.47      3.39
  178                  0.00   2800.47      3.39
  179                  0.00   2800.47      3.39
  180                  0.00   2800.47      3.39
  182                  0.00   2800.47      3.39
  183                  0.00   2800.47      3.39
  184                  0.00   2800.47      3.39
  185                  0.00   2800.47      3.39
  188                  0.00   2800.47      3.39
  189                  0.00   2800.47      3.39
  190                  0.00   2800.47      3.39
  191                  0.00   2800.47      3.39
  192                  0.00   2800.47      3.39
  193                  0.00   2800.47      3.39
  194                  0.00   2800.47      3.39
  195                  0.00   2800.47      3.39
  196                  0.00   2800.47      3.39
  197                  0.00   2800.47      3.39
  198                  0.00   2800.47      3.39
  199                  0.00   2800.47      3.39
  200                  0.00   2800.47      3.39
  201                  0.00   2800.47      3.39
  202                  0.00   2800.47      3.39
  203                  0.00   2800.47      3.39
  204                  0.00   2800.47      3.39
  205                  0.00   2800.47      3.39
  206                  0.00   2800.47      3.39
  207                  0.00   2800.47      3.39
  214                  0.00   2800.47      3.39
  215                  0.00   2800.47      3.39
  216                  0.00   2800.47      3.39
  217                  0.00   2800.47      3.39
  218                  0.00   2800.47      3.39
  219                  0.00   2800.47      3.39
  220                  0.00   2800.47      3.39
  221                  0.00   2800.47      3.39
  222                  0.00   2800.47      3.39
  223                  0.00   2800.47      3.39
  224                  0.00   2800.47      3.39
  225                  0.00   2800.47      3.39
  226                  0.00   2800.47      3.39
  227                  0.00   2800.47      3.39
  228                  0.00   2800.47      3.39
  229                  0.00   2800.47      3.39
  238                  0.00   2800.47      3.39
  239                  0.00   2800.47      3.39
  240                  0.00   2800.47      3.39
  241                  0.00   2800.47      3.39
  242                  0.00   2800.47      3.39
  243                  0.00   2800.47      3.39
  244                  0.00   2800.47      3.39
  245                  0.00   2800.47      3.39
  246                  0.00   2800.47      3.39
  247                  0.00   2800.47      3.39
  248                  0.00   2800.47      3.39
  249                  0.00   2800.47      3.39
  250                  0.00   2800.47      3.39
  251                  0.00   2800.47      3.39
  252                  0.00   2800.47      3.39
  253                  0.00   2800.47      3.39
  77                   0.00   2814.41      6.71
  85                   0.00   2814.41      6.71
  46                   0.00   2790.24     -1.09
  91                   0.00   2790.24     -1.09
  98                   0.00   2790.24     -1.09
  105                  0.00   2813.70     22.36
  112                  0.00   2813.70     22.36
  118                  0.00   2813.70     22.36
  125                  0.00   2813.70     22.36
  132                  0.00   2813.70     22.36
  139                  0.00   2813.70     22.36
  145                  0.00   2813.70     16.20
  152                  0.00   2813.70     22.17
  159                  0.00   2813.70     22.17
  236                  0.00   2805.36      6.49
  237                  0.00   2805.45      6.57
  254                  0.00   2813.70     17.09
  255                  0.00   2813.70     17.09
  10                   0.00   2805.37   2805.37
  14                   0.00   2805.45   2805.45
  TAF_01           -2610.00   2814.65      4.56  Tank
  TAF_02           -2610.00   2814.65      4.56  Tank
  FN_02               -0.00   2800.47     -0.00  Reservoir
  FN_01               -0.00   2800.47     -0.00  Reservoir
  FN_04               -0.00   2800.47     -0.00  Reservoir
  FN_03               -0.00   2800.47     -0.00  Reservoir
  FN_06               -0.00   2800.47     -0.00  Reservoir
  FN_05               -0.00   2800.47     -0.00  Reservoir
  FN_08             2620.86   2800.47     -0.00  Reservoir
  FN_07             2599.12   2800.47     -0.00  Reservoir
  FV_01               -0.00   2800.47     -0.00  Reservoir
  FV_02               -0.00   2800.47     -0.00  Reservoir
  FV_05               -0.00   2800.47     -0.00  Reservoir
  FV_09               -0.00   2800.47     -0.00  Reservoir
  FV_06               -0.00   2800.47     -0.00  Reservoir
  FV_07               -0.00   2800.47     -0.00  Reservoir
  FV_11               -0.00   2800.47     -0.00  Reservoir
  FV_10               -0.00   2800.47     -0.00  Reservoir
  FV_08               -0.00   2800.47     -0.00  Reservoir
  FV_12               -0.00   2800.47     -0.00  Reservoir
  FV_03               -0.00   2800.47     -0.00  Reservoir
  FV_04               -0.00   2800.47     -0.00  Reservoir
  FV_13               -0.00   2800.47     -0.00  Reservoir
  FV_14               -0.00   2800.47     -0.00  Reservoir
  FV_15               -0.00   2800.47     -0.00  Reservoir
  FV_16               -0.00   2800.47     -0.00  Reservoir
  CDC                 -0.00   2790.24     -0.00  Reservoir
   
   
  Link Results at 0:02:00 hrs:
  ----------------------------------------------
                       Flow  Velocity  Headloss
  Link                  L/s       m/s    /1000m
  ----------------------------------------------
  PL-01-003-004     5220.00      2.05     10.65
  PL-01-004-005     5220.00      2.05      1.42
  PL-01-005-006     2610.00      1.82      1.42
  PL-01-008-009     2610.00      1.82     16.80
  PL-01-009-010     2610.00      1.82     40.05
  PL-01-010-011     2610.00      1.82     19.05
  PL-01-011-012     2610.00      1.82      1.42
  PL-01-013-014        0.01      0.00      0.00
  PL-01-014-015        0.01      0.00      0.00
  PL-01-015-016        0.01      0.00      0.00
  PL-01-016-017        0.01      0.00      0.00
  PL-01-017-018        0.01      0.00      0.00
  PL-01-018-019        0.01      0.00      0.00
  PL-01-020-021        0.01      0.00      0.00
  PL-02-005-006     2610.00      2.31     90.71
  PL-02-006-007     2610.00      2.31     58.95
  PL-02-007-008     2610.00      2.31     30.44
  PL-02-010-011     2610.00      1.82     29.93
  PL-02-011-012     2610.00      1.82     23.78
  PL-02-012-013     2610.00      1.82     25.34
  PL-02-015-016     5219.99      3.63     12.35
  PL-02-016-017     5219.99      3.63    103.35
  PL-02-017-018     5219.99      3.63     63.39
  PL-02-018-019     5219.99      3.63     38.37
  PL-02-019-020     5219.99      3.63     64.12
  PL-02-020-021     5219.99      3.63     16.31
  PL-02-021-022     5219.99      3.63      5.37
  PL-02-022-023     5219.99      3.63    233.89
  PL-02-023-024     5219.99      3.63    173.24
  1                 2610.00      2.31     20.77
  2                 2610.00      2.31     92.77
  3                 2610.00      1.82      1.47
  4                    0.00      0.00      0.00
  6                    0.00      0.00      0.00
  7                    0.00      0.00      0.00
  8                    0.00      0.00      0.00
  10                   0.00      0.00      0.00
  11                  -0.00      0.00      0.00
  13                  -0.00      0.00      0.00
  14                   0.00      0.00      0.00
  15                  -0.00      0.00      0.00
  18                   0.00      0.00      0.00
  19                  -0.00      0.00      0.00
  22                   0.00      0.00      0.00
  23                   0.00      0.00      0.00
  24                   0.00      0.00      0.00
  25                   0.00      0.00      0.00
  27                   0.00      0.00      0.00
  28                  -0.00      0.00      0.00
  30                  -0.00      0.00      0.00
  31                   0.00      0.00      0.00
  32                   0.00      0.00      0.00
  33                   0.00      0.00      0.00
  38                   0.00      0.00      0.00
  40                   0.00      0.00      0.00
  41                   0.00      0.00      0.00
  42                   0.00      0.00      0.00
  43                  -0.00      0.00      0.00
  44                   0.00      0.00      0.00
  45                   0.00      0.00      0.00
  46                  -0.00      0.00      0.00
  47                   0.00      0.00      0.00
  48                  -0.00      0.00      0.00
  49                   0.00      0.00      0.00
  51                5219.99      3.63     41.97
  52                5219.99      3.63     12.83
  53                2620.86      1.82    141.18
  54                2620.86      1.99    331.75
  55                2620.86      1.99    606.81
  56                2599.12      1.81     72.34
  57                2599.12      1.81      2.11
  58                2599.12      1.81     60.81
  59                2599.12      1.97    323.40
  60                2599.12      1.97    596.89
  64                2610.00      1.82     81.11
  66                  -0.00      0.00      0.00
  67                  -0.00      0.00      0.00
  68                   0.01      0.00      0.00
  69                   0.00      0.00      0.00
  70                   0.00      0.00      0.00
  71                   0.00      0.00      0.00
  72                   0.00      0.00      0.00
  73                   0.00      0.00      0.00
  74                   0.00      0.00      0.00
  75                   0.00      0.00      0.00
  78                   0.00      0.00      0.00
  79                   0.00      0.00      0.00
  80                   0.00      0.00      0.00
  84                   0.00      0.00      0.00
  85                   0.00      0.00      0.00
  86                   0.00      0.00      0.00
  87                   0.00      0.00      0.00
  89                   0.00      0.00      0.00
  90                   0.00      0.00      0.00
[...]
  199                  0.00   2800.47      3.39
  200                  0.00   2800.47      3.39
  201                  0.00   2800.47      3.39
  202                  0.00   2800.47      3.39
  203                  0.00   2800.47      3.39
  204                  0.00   2800.47      3.39
  205                  0.00   2800.47      3.39
  206                  0.00   2800.47      3.39
  207                  0.00   2800.47      3.39
  214                  0.00   2800.47      3.39
  215                  0.00   2800.47      3.39
  216                  0.00   2800.47      3.39
  217                  0.00   2800.47      3.39
  218                  0.00   2800.47      3.39
  219                  0.00   2800.47      3.39
  220                  0.00   2800.47      3.39
  221                  0.00   2800.47      3.39
  222                  0.00   2800.47      3.39
  223                  0.00   2800.47      3.39
  224                  0.00   2800.47      3.39
  225                  0.00   2800.47      3.39
  226                  0.00   2800.47      3.39
  227                  0.00   2800.47      3.39
  228                  0.00   2800.47      3.39
  229                  0.00   2800.47      3.39
  238                  0.00   2800.47      3.39
  239                  0.00   2800.47      3.39
  240                  0.00   2800.47      3.39
  241                  0.00   2800.47      3.39
  242                  0.00   2800.47      3.39
  243                  0.00   2800.47      3.39
  244                  0.00   2800.47      3.39
  245                  0.00   2800.47      3.39
  246                  0.00   2800.47      3.39
  247                  0.00   2800.47      3.39
  248                  0.00   2800.47      3.39
  249                  0.00   2800.47      3.39
  250                  0.00   2800.47      3.39
  251                  0.00   2800.47      3.39
  252                  0.00   2800.47      3.39
  253                  0.00   2800.47      3.39
  77                   0.00   2810.42      2.72
  85                   0.00   2810.42      2.72
  46                   0.00   2790.24     -1.09
  91                   0.00   2790.24     -1.09
  98                   0.00   2790.24     -1.09
  105                  0.00   2809.71     18.37
  112                  0.00   2809.71     18.37
  118                  0.00   2809.71     18.37
  125                  0.00   2809.71     18.37
  132                  0.00   2809.71     18.37
  139                  0.00   2809.71     18.37
  145                  0.00   2809.71     12.21
  152                  0.00   2809.71     18.18
  159                  0.00   2809.71     18.18
  236                  0.00   2805.36      6.49
  237                  0.00   2805.45      6.57
  254                  0.00   2809.71     13.10
  255                  0.00   2809.71     13.10
  10                   0.00   2805.37   2805.37
  14                   0.00   2805.45   2805.45
  TAF_01           -2610.00   2810.66      0.57  Tank
  TAF_02           -2610.00   2810.66      0.57  Tank
  FN_02               -0.00   2800.47     -0.00  Reservoir
  FN_01               -0.00   2800.47     -0.00  Reservoir
  FN_04               -0.00   2800.47     -0.00  Reservoir
  FN_03               -0.00   2800.47     -0.00  Reservoir
  FN_06               -0.00   2800.47     -0.00  Reservoir
  FN_05               -0.00   2800.47     -0.00  Reservoir
  FN_08             2620.86   2800.47     -0.00  Reservoir
  FN_07             2599.12   2800.47     -0.00  Reservoir
  FV_01               -0.00   2800.47     -0.00  Reservoir
  FV_02                0.00   2800.47     -0.00  Reservoir
  FV_05               -0.00   2800.47     -0.00  Reservoir
  FV_09                0.00   2800.47     -0.00  Reservoir
  FV_06               -0.00   2800.47     -0.00  Reservoir
  FV_07               -0.00   2800.47     -0.00  Reservoir
  FV_11               -0.00   2800.47     -0.00  Reservoir
  FV_10               -0.00   2800.47     -0.00  Reservoir
  FV_08               -0.00   2800.47     -0.00  Reservoir
  FV_12               -0.00   2800.47     -0.00  Reservoir
  FV_03               -0.00   2800.47     -0.00  Reservoir
  FV_04               -0.00   2800.47     -0.00  Reservoir
  FV_13               -0.00   2800.47     -0.00  Reservoir
  FV_14               -0.00   2800.47     -0.00  Reservoir
  FV_15               -0.00   2800.47     -0.00  Reservoir
  FV_16               -0.00   2800.47     -0.00  Reservoir
  CDC                 -0.00   2790.24     -0.00  Reservoir
   
   
  Link Results at 0:20:00 hrs:
  ----------------------------------------------
                       Flow  Velocity  Headloss
  Link                  L/s       m/s    /1000m
  ----------------------------------------------
  PL-01-003-004     5220.00      2.05     10.65
  PL-01-004-005     5220.00      2.05      1.42
  PL-01-005-006     2610.00      1.82      1.42
  PL-01-008-009     2610.00      1.82     16.80
  PL-01-009-010     2610.00      1.82     40.05
  PL-01-010-011     2610.00      1.82     19.05
  PL-01-011-012     2610.00      1.82      1.42
  PL-01-013-014        0.01      0.00      0.00
  PL-01-014-015        0.00      0.00      0.00
  PL-01-015-016        0.00      0.00      0.00
  PL-01-016-017        0.00      0.00      0.00
  PL-01-017-018        0.00      0.00      0.00
  PL-01-018-019        0.00      0.00      0.00
  PL-01-020-021        0.00      0.00      0.00
  PL-02-005-006     2610.00      2.31     90.79
  PL-02-006-007     2610.00      2.31     58.87
  PL-02-007-008     2610.00      2.31     30.44
  PL-02-010-011     2610.00      1.82     29.93
  PL-02-011-012     2610.00      1.82     23.78
  PL-02-012-013     2610.00      1.82     25.34
  PL-02-015-016     5219.99      3.63     12.35
  PL-02-016-017     5219.99      3.63    103.35
  PL-02-017-018     5219.99      3.63     63.39
  PL-02-018-019     5219.99      3.63     38.37
  PL-02-019-020     5219.99      3.63     64.12
  PL-02-020-021     5219.99      3.63     16.31
  PL-02-021-022     5219.99      3.63      5.37
  PL-02-022-023     5219.99      3.63    233.89
  PL-02-023-024     5219.99      3.63    173.24
  1                 2610.00      2.31     20.52
  2                 2610.00      2.31     93.02
  3                 2610.00      1.82      1.47
  4                    0.00      0.00      0.00
  6                    0.00      0.00      0.00
  7                    0.00      0.00      0.00
  8                    0.00      0.00      0.00
  10                   0.00      0.00      0.00
  11                  -0.00      0.00      0.00
  13                   0.00      0.00      0.00
  14                   0.00      0.00      0.00
  15                  -0.00      0.00      0.00
  18                   0.00      0.00      0.00
  19                  -0.00      0.00      0.00
  22                   0.00      0.00      0.00
  23                   0.00      0.00      0.00
  24                   0.00      0.00      0.00
  25                   0.00      0.00      0.00
  27                   0.00      0.00      0.00
  28                  -0.00      0.00      0.00
  30                  -0.00      0.00      0.00
  31                  -0.00      0.00      0.00
  32                  -0.00      0.00      0.00
  33                   0.00      0.00      0.00
  38                   0.00      0.00      0.00
  40                   0.00      0.00      0.00
  41                   0.00      0.00      0.00
  42                   0.00      0.00      0.00
  43                  -0.00      0.00      0.00
  44                  -0.00      0.00      0.00
  45                  -0.00      0.00      0.00
  46                  -0.00      0.00      0.00
  47                   0.00      0.00      0.00
  48                  -0.00      0.00      0.00
  49                   0.00      0.00      0.00
  51                5219.99      3.63     41.97
  52                5219.99      3.63     12.83
  53                2620.86      1.82    141.18
  54                2620.86      1.99    331.75
  55                2620.86      1.99    606.81
  56                2599.12      1.81     72.34
  57                2599.12      1.81      2.11
  58                2599.12      1.81     60.81
  59                2599.12      1.97    323.40
  60                2599.12      1.97    596.89
  64                2610.00      1.82     81.11
  66                   0.00      0.00      0.00
  67                   0.00      0.00      0.00
  68                   0.00      0.00      0.00
  69                   0.00      0.00      0.00
  70                   0.00      0.00      0.00
  71                   0.00      0.00      0.00
  72                   0.00      0.00      0.00
  73                   0.00      0.00      0.00
  74                   0.00      0.00      0.00
  75                   0.00      0.00      0.00
  78                   0.00      0.00      0.00
  79                   0.00      0.00      0.00
  80                   0.00      0.00      0.00
  84                  -0.00      0.00      0.00
  85                   0.00      0.00      0.00
  86                   0.00      0.00      0.00
  87                   0.00      0.00      0.00
  89                   0.00      0.00      0.00
  90                   0.00      0.00      0.00
  92                   0.00      0.00      0.00
  93                   0.00      0.00      0.00
  94                   0.00      0.00      0.00
  99                   0.00      0.00      0.00
  101                  0.00      0.00      0.00
  103                  0.00      0.00      0.00
  105                  0.00      0.00      0.00
  106                  0.00      0.00      0.00
  107                  0.00      0.00      0.00
  108                  0.00      0.00      0.00
  110                  0.00      0.00      0.00
  113                  0.00      0.00      0.00
  114                  0.00      0.00      0.00
  115                  0.00      0.00      0.00
  117                  0.00      0.00      0.00
  119                  0.00      0.00      0.00
  120                  0.00      0.00      0.00
  121                  0.00      0.00      0.00
  123                  0.00      0.00      0.00
  126                  0.00      0.00      0.00
  127                  0.00      0.00      0.00
  128                  0.00      0.00      0.00
  130                  0.00      0.00      0.00
  132                  0.00      0.00      0.00
  133                  0.00      0.00      0.00
  134                  0.00      0.00      0.00
  135                  0.00      0.00      0.00
  137                  0.00      0.00      0.00
  139                  0.00      0.00      0.00
  141                 -0.00      0.00      0.00
  142                  0.00      0.00      0.00
  144                  0.00      0.00      0.00
  147                 -0.00      0.00      0.00
  148                 -0.00      0.00      0.00
  150                  0.00      0.00      0.00
  154                  0.00      0.00      0.00
  155                  0.00      0.00      0.00
  157                  0.00      0.00      0.00
  159                  0.00      0.00      0.00
  160                  0.00      0.00      0.00
  161                  0.00      0.00      0.00
  162                  0.00      0.00      0.00
  164                  0.00      0.00      0.00
  166                  0.00      0.00      0.00
  167                  0.00      0.00      0.00
  168                  0.00      0.00      0.00
  169                  0.00      0.00      0.00
  171                  0.00      0.00      0.00
  174                  0.00      0.00      0.00
  175                 -0.00      0.00      0.00
  177                  0.00      0.00      0.00
  179                  0.00      0.00      0.00
  180                  0.00      0.00      0.00
  182                  0.00      0.00      0.00
  183                  0.00      0.00      0.00
  184                 -0.00      0.00      0.00
  185                 -0.00      0.00      0.00
  186                 -0.00      0.00      0.00
  187                 -0.00      0.00      0.00
  189                  0.00      0.00      0.00
  190                  0.00      0.00      0.00
  191                  0.00      0.00      0.00
  192                 -0.00      0.00      0.00
  193                 -0.00      0.00      0.00
  194                 -0.00      0.00      0.00
  195                  0.00      0.00      0.00
  196                  0.00      0.00      0.00
  197                  0.00      0.00      0.00
  198                  0.00      0.00      0.00
  199                 -0.00      0.00      0.00
  200                 -0.00      0.00      0.00
  201                  0.00      0.00      0.00
  202                  0.00      0.00      0.00
  203                  0.00      0.00      0.00
  204                  0.00      0.00      0.00
  205                  0.00      0.00      0.00
  206                 -0.00      0.00      0.00
  207                 -0.00      0.00      0.00
  208                  0.00      0.00      0.00
  209                  0.00      0.00      0.00
  210                  0.00      0.00      0.00
  211                  0.00      0.00      0.00
  212                 -0.00      0.00      0.00
  213                 -0.00      0.00      0.00
  214                 -0.00      0.00      0.00
  216                  0.00      0.00      0.00
  217                 -0.00      0.00      0.00
  218                  0.00      0.00      0.00
  219                  0.00      0.00      0.00
  221                  0.00      0.00      0.00
  222                  0.00      0.00      0.00
  223                  0.00      0.00      0.00
  224                  0.00      0.00      0.00
  225                  0.00      0.00      0.00
  226                  0.00      0.00      0.00
  227                 -0.00      0.00      0.00
  228                  0.00      0.00      0.00
  229                  0.00      0.00      0.00
  230                 -0.00      0.00      0.00
  231                 -0.00      0.00      0.00
  232                 -0.00      0.00      0.00
  234                  0.00      0.00      0.00
  235                  0.00      0.00      0.00
  236                  0.00      0.00      0.00
  237                  0.00      0.00      0.00
  238                  0.00      0.00      0.00
  239                 -0.00      0.00      0.00
  240                  0.00      0.00      0.00
  241                 -0.00      0.00      0.00
  242                 -0.00      0.00      0.00
  243                  0.00      0.00      0.00
  244                  0.00      0.00      0.00
  245                 -0.00      0.00      0.00
  246                  0.00      0.00      0.00
  247                 -0.00      0.00      0.00
  248                 -0.00      0.00      0.00
  249                 -0.00      0.00      0.00
  250                  0.00      0.00      0.00
  251                  0.00      0.00      0.00
  255                  0.00      0.00      0.00
  256                  0.00      0.00      0.00
  257                 -0.00      0.00      0.00
  258                  0.00      0.00      0.00
  260                 -0.00      0.00      0.00
  261                  0.00      0.00      0.00
  262                  0.00      0.00      0.00
  263                  0.00      0.00      0.00
  264                  0.00      0.00      0.00
  265                 -0.00      0.00      0.00
  267                  0.00      0.00      0.00
  269                 -0.00      0.00      0.00
  270                  0.00      0.00      0.00
  271                  0.00      0.00      0.00
  272                 -0.00      0.00      0.00
  273                  0.00      0.00      0.00
  274                  0.00      0.00      0.00
  275                  0.00      0.00      0.00
  276                  0.00      0.00      0.00
  279                  0.00      0.00      0.00
  280                  0.00      0.00      0.00
  12                   0.00      0.00      0.00
  16                   0.00      0.00      0.00
  50                  -0.00      0.00      0.00
  76                  -0.00      0.00      0.00
  82                  -0.00      0.00      0.00
  83                  -0.00      0.00      0.00
  91                  -0.00      0.00      0.00
  97                  -0.00      0.00      0.00
  104                 -0.00      0.00      0.00
  111                  0.00      0.00      0.00
  112                 -0.00      0.00      0.00
  118                 -0.00      0.00      0.00
  124                  0.00      0.00      0.00
  131                 -0.00      0.00      0.00
  138                  0.00      0.00      0.00
  77                2610.00      1.77     16.16
  5                    0.00      0.00      0.00
  9                   -0.00      0.00      0.00
  17                  -0.00      0.00      0.00
  35                  -0.00      0.00      0.00
  36                  -0.00      0.00      0.00
  37                  -0.00      0.00      0.00
  39                  -0.00      0.00      0.00
  61                   0.00      0.00      0.00
  62                  -0.00      0.00      0.00
  63                  -0.00      0.00      0.00
  65                  -0.00      0.00      0.00
  34                  -0.00      0.00      0.00
  88                2610.00      1.77     37.52
  95                2610.00      1.77     37.52
  96                2610.00      1.77     16.16
  20                2610.00      1.82     61.85
  98                5219.99      3.63      5.23
  100               2610.00      1.82    152.55
  102                  0.01      0.00      0.00
  109               2609.99      1.82      1.40
  116                 -0.00      0.00      0.00
  122                 -0.00      0.00      0.00
  125                 -0.00      0.00      0.00
  21                2609.99      1.82      1.40
  PUMP_01              0.00      0.00      0.00  Pump
  PUMP_02              0.00      0.00      0.00  Pump
  PUMP_03              0.00      0.00      0.00  Pump
  RIKO_01           2610.00      3.32      4.01  FCV
  RIKO_02           2610.00      3.32      3.20  FCV
  BF_GFN_01            0.00      0.00      0.00  TCV
  BF_FN_02             0.00      0.00      0.00  TCV
  BF_FN_01             0.00      0.00      0.00  TCV
  BF_GFN_02            0.00      0.00      0.00  TCV
  BF_FN_04             0.00      0.00      0.00  TCV
  BF_FN_03             0.00      0.00      0.00  TCV
  BF_GFN_03            0.00      0.00      0.00  TCV
  BF_FN_06             0.00      0.00      0.00  TCV
  BF_FN_05             0.00      0.00      0.00  TCV
  BF_FN_08          2620.86      2.32      0.08  TCV
  BF_FN_07          2599.12      2.30      0.08  TCV
  BF_GFN_04         5219.99      3.63      0.20  TCV
  BF_GFV_01            0.00      0.00      0.00  TCV
  BF_FV_01             0.00      0.00      0.00  TCV
  BF_FV_02             0.00      0.00      0.00  TCV
  BF_FV_03             0.00      0.00      0.00  TCV
  BF_FV_04             0.00      0.00      0.00  TCV
  BF_GFV_02            0.00      0.00      0.00  TCV
  BF_FV_05             0.00      0.00      0.00  TCV
  BF_FV_06             0.00      0.00      0.00  TCV
  BF_FV_07             0.00      0.00      0.00  TCV
  BF_FV_08             0.00      0.00      0.00  TCV
  BF_GFV_03            0.00      0.00      0.00  TCV
  BF_FV_09             0.00      0.00      0.00  TCV
  BF_FV_10             0.00      0.00      0.00  TCV
  BF_FV_11             0.00      0.00      0.00  TCV
  BF_FV_12             0.00      0.00      0.00  TCV
  BF_GFV_04            0.00      0.00      0.00  TCV
  BF_FV_13             0.00      0.00      0.00  TCV
  BF_FV_14             0.00      0.00      0.00  TCV
  BF_FV_15             0.00      0.00      0.00  TCV
  BF_FV_16             0.00      0.00      0.00  TCV
  BF_CONECT         2609.99      2.31      0.08  TCV
   
  Analysis ended Thu Sep 03 09:39:07 2020
