  Page 1                                    Thu Jul 02 13:58:25 2020

  ******************************************************************
  *                           E P A N E T                          *
  *                   Hydraulic and Water Quality                  *
  *                   Analysis for Pipe Networks                   *
  *                         Version 2.1                            *
  ******************************************************************
  
  Analysis begun Thu Jul 02 13:58:25 2020

  WARNING: FCV RIKO_01 open but cannot deliver flow at 0:00:00 hrs.
  WARNING: FCV RIKO_02 open but cannot deliver flow at 0:00:00 hrs.
  WARNING: System unbalanced at 0:00:00 hrs. EXECUTION HALTED.
  
   
  Node Results at 0:00:00 hrs:
  ----------------------------------------------
                     Demand      Head  Pressure
  Node                  L/s         m         m
  ----------------------------------------------
  ND-01-003            0.00   2820.24     13.18
  ND-01-004            0.00   2820.24     23.49
  ND-01-005            0.00   2820.24     23.49
  ND-01-006            0.00   2820.24     23.49
  ND-01-007            0.00   2820.24     23.42
  ND-01-008            0.00   2820.24     23.42
  ND-01-009            0.00   2820.24     23.32
  ND-01-010            0.00   2820.24     22.96
  ND-01-011            0.00   2820.24     21.34
  ND-01-012            0.00   2820.24     21.36
  ND-01-013            0.00   2820.24     21.39
  ND-01-014            0.00   2820.24     21.35
  ND-01-015            0.00   2820.24     21.39
  ND-01-016            0.00   2820.24     23.64
  ND-01-017            0.00   2820.24     23.58
  ND-01-018            0.00   2820.24     21.36
  ND-01-019            0.00   2820.24     21.36
  ND-01-020            0.00   2820.24     21.40
  ND-01-021            0.00   2820.24     21.37
  ND-02-006            0.00   2820.24     23.63
  ND-02-007            0.00   2820.24     23.63
  ND-02-008            0.00   2820.24     23.63
  ND-02-009            0.00   2820.24     23.49
  ND-02-010            0.00   2820.24     23.49
  ND-02-011            0.00   2820.24     23.49
  ND-02-012            0.00   2820.24     22.64
  ND-02-013            0.00   2820.24     21.37
  ND-02-015            0.00   2820.24     21.37
  ND-02-016            0.00   2820.24     21.37
  ND-02-017            0.00   2820.24     21.37
  ND-02-018            0.00   2820.24     23.59
  ND-02-019            0.00   2820.24     23.59
  ND-02-020            0.00   2820.24     21.37
  ND-02-021            0.00   2820.24     21.37
  ND-02-022            0.00   2820.24     21.37
  ND-02-023            0.00   2820.24     21.37
  ND-02-024            0.00   2820.24     21.37
  1                    0.00   2820.24     23.49
  2                    0.00   2820.24     21.37
  3                    0.00   2820.24     21.37
  4                    0.00   2800.47      1.59
  5                    0.00   2800.47      1.59
  6                    0.00   2800.47      1.59
  7                    0.00   2800.47      1.59
  8                    0.00   2800.47      2.39
  9                    0.00   2800.47      3.50
  11                   0.00   2800.47      1.59
  12                   0.00   2800.47      1.59
  13                   0.00   2800.47      1.59
  15                   0.00   2800.47      2.39
  16                   0.00   2800.47      3.50
  18                   0.00   2820.24     21.37
  19                   0.00   2659.46   -139.41
  20                   0.00   2659.46   -139.41
  21                   0.00   2659.46   -139.41
  22                   0.00   2659.46   -139.41
  23                   0.00   2800.47      2.39
  24                   0.00   2800.47      3.50
  26                   0.00   2659.46   -139.41
  27                   0.00   2659.46   -139.41
  28                   0.00   2659.46   -139.41
  29                   0.00   2800.47      2.39
  30                   0.00   2800.47      3.50
  32                   0.00   2820.24     21.48
  33                   0.00   2659.46   -139.41
  34                   0.00   2659.46   -139.41
  35                   0.00   2659.46   -139.41
  36                   0.00   2659.46   -139.41
  37                   0.00   2800.47      2.39
  38                   0.00   2800.47      3.50
  39                   0.00   2659.46   -139.41
  40                   0.00   2659.46   -139.41
  41                   0.00   2659.46   -139.41
  42                   0.00   2800.47      2.39
  43                   0.00   2800.47      3.50
  47                   0.00   2260.54   -538.33
  48                   0.00   2260.54   -538.33
  49                   0.00   2260.54   -538.33
  50                   0.00   2260.54   -538.33
  51                   0.00   2800.47      2.39
  52                   0.00   2260.54   -538.33
  53                   0.00   2260.54   -538.33
  54                   0.00   2260.54   -538.33
  55                   0.00   2800.47      2.39
  56                   0.00   2800.47      3.50
  59                   0.00   2800.47      3.50
  61                   0.00   2820.24     21.37
  62                   0.00   2820.24     21.37
  63                   0.00   2820.24     21.39
  64                   0.00   2820.24     21.37
  65                   0.00   2820.24     21.39
  66                   0.00   1981.07   -817.80
  67                   0.00   1981.07   -817.80
  68                   0.00   1981.07   -817.80
  69                   0.00   1981.07   -817.80
  70                   0.00   2800.47      2.39
  71                   0.00   2800.47      3.39
  72                   0.00   1981.07   -817.80
  73                   0.00   1981.07   -817.80
  74                   0.00   1981.07   -817.80
  75                   0.00   1981.07   -817.80
  76                   0.00   2800.47      2.39
  78                   0.00   2800.47      3.39
  79                   0.00   1981.07   -817.80
  80                   0.00   1981.07   -817.80
  81                   0.00   1981.07   -817.80
  82                   0.00   1981.07   -817.80
  83                   0.00   2800.47      2.39
  84                   0.00   2800.47      3.39
  86                   0.00   1981.07   -817.80
  87                   0.00   1981.07   -817.80
  88                   0.00   1981.07   -817.80
  89                   0.00   2800.47      2.39
  90                   0.00   2800.47      3.39
  92                   0.00   2509.36   -289.52
  93                   0.00   2509.36   -289.52
  94                   0.00   2509.36   -289.52
  95                   0.00   2509.36   -289.52
  96                   0.00   2800.47      2.39
  97                   0.00   2800.47      3.39
  99                   0.00   2509.36   -289.52
  100                  0.00   2509.36   -289.52
  101                  0.00   2509.36   -289.52
  102                  0.00   2509.36   -289.52
  103                  0.00   2800.47      2.39
  104                  0.00   2800.47      3.39
  106                  0.00   2509.36   -289.52
  107                  0.00   2509.36   -289.52
  108                  0.00   2509.36   -289.52
  109                  0.00   2509.36   -289.52
  110                  0.00   2800.47      2.39
  111                  0.00   2800.47      3.39
  113                  0.00   2509.36   -289.52
  114                  0.00   2509.36   -289.52
  115                  0.00   2509.36   -289.52
  116                  0.00   2800.47      2.39
  117                  0.00   2800.47      3.39
  119                  0.00   2352.52   -446.35
  120                  0.00   2352.52   -446.35
  121                  0.00   2352.52   -446.35
  122                  0.00   2352.52   -446.35
  123                  0.00   2800.47      2.39
  124                  0.00   2800.47      3.39
  126                  0.00   2352.52   -446.35
  127                  0.00   2352.52   -446.35
  128                  0.00   2352.52   -446.35
  129                  0.00   2352.52   -446.35
  130                  0.00   2800.47      3.39
  131                  0.00   2800.47      3.39
  133                  0.00   2352.52   -446.35
  134                  0.00   2352.52   -446.35
  135                  0.00   2352.52   -446.35
  136                  0.00   2352.52   -446.35
  137                  0.00   2800.47      3.39
  138                  0.00   2800.47      3.39
  140                  0.00   2352.52   -446.35
  141                  0.00   2352.52   -446.35
  142                  0.00   2352.52   -446.35
  143                  0.00   2800.47      3.39
  144                  0.00   2800.47      3.39
  146                  0.00   2214.14   -584.72
  147                  0.00   2214.14   -584.72
  148                  0.00   2214.14   -584.74
  149                  0.00   2214.14   -584.74
  150                  0.00   2800.47      3.39
  151                  0.00   2800.47      3.39
  153                  0.00   2214.14   -584.74
  154                  0.00   2214.14   -584.74
  155                  0.00   2214.14   -584.74
  156                  0.00   2214.14   -584.74
  157                  0.00   2800.47      3.39
  158                  0.00   2800.47      3.39
  160                  0.00   2214.14   -584.74
  161                  0.00   2214.14   -584.74
  162                  0.00   2214.14   -584.74
  163                  0.00   2214.14   -584.74
  164                  0.00   2800.47      3.39
  165                  0.00   2800.47      3.39
  167                  0.00   2214.14   -584.74
  168                  0.00   2214.14   -584.74
  169                  0.00   2214.14   -584.74
  170                  0.00   2800.47      3.39
  171                  0.00   2800.47      3.39
  173                  0.00   2800.47      3.39
  174                  0.00   2800.47      3.39
  175                  0.00   2800.47      3.39
  176                  0.00   2800.47      3.39
  177                  0.00   2800.47      3.39
  178                  0.00   2800.47      3.39
  179                  0.00   2800.47      3.39
  180                  0.00   2800.47      3.39
  182                  0.00   2800.47      3.39
  183                  0.00   2800.47      3.39
  184                  0.00   2800.47      3.39
  185                  0.00   2800.47      3.39
  188                  0.00   2800.47      3.39
  189                  0.00   2800.47      3.39
  190                  0.00   2800.47      3.39
  191                  0.00   2800.47      3.39
  192                  0.00   2800.47      3.39
  193                  0.00   2800.47      3.39
  194                  0.00   2800.47      3.39
  195                  0.00   2800.47      3.39
  196                  0.00   2800.47      3.39
  197                  0.00   2800.47      3.39
  198                  0.00   2800.47      3.39
  199                  0.00   2800.47      3.39
  200                  0.00   2800.47      3.39
  201                  0.00   2800.47      3.39
  202                  0.00   2800.47      3.39
  203                  0.00   2800.47      3.39
  204                  0.00   2800.47      3.39
  205                  0.00   2800.47      3.39
  206                  0.00   2800.47      3.39
  207                  0.00   2800.47      3.39
  214                  0.00   2800.47      3.39
  215                  0.00   2800.47      3.39
  216                  0.00   2800.47      3.39
  217                  0.00   2800.47      3.39
  218                  0.00   2800.47      3.39
  219                  0.00   2800.47      3.39
  220                  0.00   2800.47      3.39
  221                  0.00   2800.47      3.39
  222                  0.00   2800.47      3.39
  223                  0.00   2800.47      3.39
  224                  0.00   2800.47      3.39
  225                  0.00   2800.47      3.39
  226                  0.00   2800.47      3.39
  227                  0.00   2800.47      3.39
  228                  0.00   2800.47      3.39
  229                  0.00   2800.47      3.39
  238                  0.00   2800.47      3.39
  239                  0.00   2800.47      3.39
  240                  0.00   2800.47      3.39
  241                  0.00   2800.47      3.39
  242                  0.00   2800.47      3.39
  243                  0.00   2800.47      3.39
  244                  0.00   2800.47      3.39
  245                  0.00   2800.47      3.39
  246                  0.00   2800.47      3.39
  247                  0.00   2800.47      3.39
  248                  0.00   2800.47      3.39
  249                  0.00   2800.47      3.39
  250                  0.00   2800.47      3.39
  251                  0.00   2800.47      3.39
  252                  0.00   2800.47      3.39
  253                  0.00   2800.47      3.39
  77                   0.00   2820.24     12.54
  85                   0.00   2820.24     12.54
  46                   0.00   2790.24     -1.09
  91                   0.00   2790.24     -1.09
  98                   0.00   2790.24     -1.09
  105                  0.00   2820.24     28.91
  112                  0.00   2820.24     28.91
  118                  0.00   2820.24     28.91
  125                  0.00   2820.24     28.91
  132                  0.00   2820.24     28.91
  139                  0.00   2820.24     28.91
  145                  0.00   2820.24     22.75
  152                  0.00   2820.24     28.71
  159                  0.00   2820.24     28.71
  236                  0.00   2820.24     21.37
  237                  0.00   2820.24     21.36
  254                  0.00   2820.24     23.63
  255                  0.00   2820.24     23.63
  TAF_01               0.00   2815.09      5.00  Tank
  TAF_02               0.00   2815.09      5.00  Tank
  FN_02               -0.00   2800.47     -0.00  Reservoir
  FN_01               -0.00   2800.47     -0.00  Reservoir
  FN_04               -0.00   2800.47     -0.00  Reservoir
  FN_03               -0.00   2800.47     -0.00  Reservoir
  FN_06               -0.00   2800.47     -0.00  Reservoir
  FN_05               -0.00   2800.47     -0.00  Reservoir
  FN_08               -0.00   2800.47     -0.00  Reservoir
  FN_07               -0.00   2800.47     -0.00  Reservoir
  FV_01               -0.00   2800.47     -0.00  Reservoir
  FV_02                0.00   2800.47     -0.00  Reservoir
  FV_05               -0.00   2800.47     -0.00  Reservoir
  FV_09               -0.00   2800.47     -0.00  Reservoir
  FV_06               -0.00   2800.47     -0.00  Reservoir
  FV_07               -0.00   2800.47     -0.00  Reservoir
  FV_11               -0.00   2800.47     -0.00  Reservoir
  FV_10               -0.00   2800.47     -0.00  Reservoir
  FV_08               -0.00   2800.47     -0.00  Reservoir
  FV_12               -0.00   2800.47     -0.00  Reservoir
  FV_03               -0.00   2800.47     -0.00  Reservoir
  FV_04                0.00   2800.47     -0.00  Reservoir
  FV_13               -0.00   2800.47     -0.00  Reservoir
  FV_14               -0.00   2800.47     -0.00  Reservoir
  FV_15               -0.00   2800.47     -0.00  Reservoir
  FV_16               -0.00   2800.47     -0.00  Reservoir
  CDC                 -0.00   2790.24     -0.00  Reservoir
   
   
  Link Results at 0:00:00 hrs:
  ----------------------------------------------
                       Flow  Velocity  Headloss
  Link                  L/s       m/s    /1000m
  ----------------------------------------------
  PL-01-003-004       -0.00      0.00      0.00
  PL-01-004-005       -0.00      0.00      0.00
  PL-01-005-006        0.00      0.00      0.00
  PL-01-008-009        0.00      0.00      0.00
  PL-01-009-010        0.00      0.00      0.00
  PL-01-010-011        0.00      0.00      0.00
  PL-01-011-012        0.00      0.00      0.00
  PL-01-013-014        0.00      0.00      0.00
  PL-01-014-015        0.00      0.00      0.00
  PL-01-015-016        0.00      0.00      0.00
  PL-01-016-017        0.00      0.00      0.00
  PL-01-017-018        0.00      0.00      0.00
  PL-01-018-019        0.00      0.00      0.00
  PL-01-020-021        0.00      0.00      0.00
  PL-02-005-006       -0.00      0.00      0.00
  PL-02-006-007        0.00      0.00      0.00
  PL-02-007-008        0.00      0.00      0.00
  PL-02-010-011        0.00      0.00      0.00
  PL-02-011-012        0.00      0.00      0.00
  PL-02-012-013        0.00      0.00      0.00
  PL-02-015-016       -0.00      0.00      0.00
  PL-02-016-017       -0.00      0.00      0.00
  PL-02-017-018       -0.00      0.00      0.00
  PL-02-018-019       -0.00      0.00      0.00
  PL-02-019-020        0.00      0.00      0.00
  PL-02-020-021       -0.00      0.00      0.00
  PL-02-021-022       -0.00      0.00      0.00
  PL-02-022-023        0.00      0.00      0.00
  PL-02-023-024       -0.00     -0.00      0.00
  1                    0.00      0.00      0.00
  2                    0.00      0.00      0.00
  3                    0.00      0.00      0.00
  4                    0.00      0.00      0.00
  6                    0.00      0.00      0.00
  7                   -0.00      0.00      0.00
  8                    0.00      0.00      0.00
  10                   0.00      0.00      0.00
  11                  -0.00      0.00      0.00
  13                  -0.00     -0.00      0.00
  14                  -0.00     -0.00      0.00
  15                  -0.00     -0.00      0.00
  18                  -0.00     -0.00      0.00
  19                  -0.00     -0.00      0.00
  22                   0.00      0.00      0.00
  23                   0.00      0.00      0.00
  24                  -0.00      0.00      0.00
  25                  -0.00      0.00      0.00
  27                  -0.00     -0.00      0.00
  28                  -0.00      0.00      0.00
  30                   0.00      0.00      0.00
  31                   0.00      0.00      0.00
  32                   0.00      0.00      0.00
  33                  -0.00      0.00      0.00
  38                   0.00      0.00      0.00
  40                  -0.00      0.00      0.00
  41                  -0.00      0.00      0.00
  42                  -0.00     -0.00      0.00
  43                  -0.00      0.00      0.00
  44                   0.00      0.00      0.00
  45                   0.00      0.00      0.00
  46                   0.00      0.00      0.00
  47                  -0.00      0.00      0.00
  48                  -0.00      0.00      0.00
  49                   0.00      0.00      0.00
  51                   0.00      0.00      0.00
  52                  -0.00      0.00      0.00
  53                  -0.00      0.00      0.00
  54                  -0.00      0.00      0.00
  55                  -0.00      0.00      0.00
  56                   0.00      0.00      0.00
  57                   0.00      0.00      0.00
  58                  -0.00      0.00      0.00
  59                  -0.00      0.00      0.00
  60                  -0.00      0.00      0.00
  64                   0.00      0.00      0.00
  66                   0.00      0.00      0.00
  67                   0.00      0.00      0.00
  68                   0.00      0.00      0.00
  69                   0.00      0.00      0.00
  70                   0.00      0.00      0.00
  71                   0.00      0.00      0.00
  72                   0.00      0.00      0.00
  73                   0.00      0.00      0.00
  74                  -0.00      0.00      0.00
  75                  -0.00      0.00      0.00
  78                   0.00      0.00      0.00
  79                  -0.00      0.00      0.00
  80                  -0.00      0.00      0.00
  84                   0.00      0.00      0.00
  85                  -0.00      0.00      0.00
  86                  -0.00      0.00      0.00
  87                  -0.00      0.00      0.00
  89                  -0.00      0.00      0.00
  90                  -0.00      0.00      0.00
  92                  -0.00      0.00      0.00
  93                   0.00      0.00      0.00
  94                  -0.00      0.00      0.00
  99                   0.00      0.00      0.00
  101                 -0.00      0.00      0.00
  103                 -0.00      0.00      0.00
  105                 -0.00      0.00      0.00
  106                 -0.00      0.00      0.00
  107                  0.00      0.00      0.00
  108                 -0.00      0.00      0.00
  110                 -0.00      0.00      0.00
  113                  0.00      0.00      0.00
  114                 -0.00      0.00      0.00
  115                 -0.00      0.00      0.00
  117                 -0.00      0.00      0.00
  119                 -0.00      0.00      0.00
  120                 -0.00      0.00      0.00
  121                 -0.00      0.00      0.00
  123                 -0.00      0.00      0.00
  126                  0.00      0.00      0.00
  127                 -0.00      0.00      0.00
  128                 -0.00      0.00      0.00
  130                 -0.00      0.00      0.00
  132                 -0.00      0.00      0.00
  133                 -0.00      0.00      0.00
  134                 -0.00      0.00      0.00
  135                 -0.00      0.00      0.00
  137                 -0.00      0.00      0.00
  139                 -0.00      0.00      0.00
  141                 -0.00      0.00      0.00
  142                 -0.00      0.00      0.00
  144                 -0.00      0.00      0.00
  147                 -0.00      0.00      0.00
  148                 -0.00      0.00      0.00
  150                 -0.00      0.00      0.00
  154                  0.00      0.00      0.00
  155                 -0.00      0.00      0.00
  157                 -0.00      0.00      0.00
  159                  0.00      0.00      0.00
  160                  0.00      0.00      0.00
  161                 -0.00      0.00      0.00
  162                 -0.00      0.00      0.00
  164                 -0.00      0.00      0.00
  166                 -0.00      0.00      0.00
  167                  0.00      0.00      0.00
  168                  0.00      0.00      0.00
  169                 -0.00      0.00      0.00
  171                 -0.00      0.00      0.00
  174                  0.00      0.00      0.00
  175                 -0.00      0.00      0.00
  177                 -0.00      0.00      0.00
  179                 -0.00      0.00      0.00
  180                 -0.00      0.00      0.00
  182                 -0.00      0.00      0.00
  183                 -0.00      0.00      0.00
  184                 -0.00      0.00      0.00
  185                 -0.00      0.00      0.00
  186                  0.00      0.00      0.00
  187                 -0.00      0.00      0.00
  189                  0.00      0.00      0.00
  190                  0.00      0.00      0.00
  191                 -0.00      0.00      0.00
  192                  0.00      0.00      0.00
  193                 -0.00      0.00      0.00
  194                 -0.00      0.00      0.00
  195                 -0.00      0.00      0.00
  196                 -0.00      0.00      0.00
  197                  0.00      0.00      0.00
  198                 -0.00      0.00      0.00
  199                  0.00      0.00      0.00
  200                  0.00      0.00      0.00
  201                  0.00      0.00      0.00
  202                 -0.00      0.00      0.00
  203                 -0.00      0.00      0.00
  204                  0.00      0.00      0.00
  205                 -0.00      0.00      0.00
  206                 -0.00      0.00      0.00
  207                  0.00      0.00      0.00
  208                  0.00      0.00      0.00
  209                  0.00      0.00      0.00
  210                  0.00      0.00      0.00
  211                 -0.00      0.00      0.00
  212                  0.00      0.00      0.00
  213                 -0.00      0.00      0.00
  214                  0.00      0.00      0.00
  216                  0.00      0.00      0.00
  217                  0.00      0.00      0.00
  218                  0.00      0.00      0.00
  219                 -0.00      0.00      0.00
  221                 -0.00      0.00      0.00
  222                  0.00      0.00      0.00
  223                 -0.00      0.00      0.00
  224                 -0.00      0.00      0.00
  225                 -0.00      0.00      0.00
  226                 -0.00      0.00      0.00
  227                  0.00      0.00      0.00
  228                  0.00      0.00      0.00
  229                  0.00      0.00      0.00
  230                  0.00      0.00      0.00
  231                 -0.00      0.00      0.00
  232                 -0.00      0.00      0.00
  234                 -0.00      0.00      0.00
  235                  0.00      0.00      0.00
  236                  0.00      0.00      0.00
  237                 -0.00      0.00      0.00
  238                 -0.00      0.00      0.00
  239                 -0.00      0.00      0.00
  240                 -0.00      0.00      0.00
  241                 -0.00      0.00      0.00
  242                 -0.00      0.00      0.00
  243                  0.00      0.00      0.00
  244                  0.00      0.00      0.00
  245                  0.00      0.00      0.00
  246                 -0.00      0.00      0.00
  247                 -0.00      0.00      0.00
  248                  0.00      0.00      0.00
  249                  0.00      0.00      0.00
  250                  0.00      0.00      0.00
  251                  0.00      0.00      0.00
  255                 -0.00      0.00      0.00
  256                 -0.00      0.00      0.00
  257                 -0.00      0.00      0.00
  258                  0.00      0.00      0.00
  260                 -0.00      0.00      0.00
  261                 -0.00      0.00      0.00
  262                 -0.00      0.00      0.00
  263                 -0.00      0.00      0.00
  264                 -0.00      0.00      0.00
  265                 -0.00      0.00      0.00
  267                 -0.00      0.00      0.00
  269                 -0.00      0.00      0.00
  270                 -0.00      0.00      0.00
  271                 -0.00      0.00      0.00
  272                 -0.00      0.00      0.00
  273                 -0.00      0.00      0.00
  274                 -0.00      0.00      0.00
  275                 -0.00      0.00      0.00
  276                 -0.00      0.00      0.00
  279                 -0.00      0.00      0.00
  280                 -0.00      0.00      0.00
  12                  -0.00      0.00      0.00
  16                   0.00      0.00      0.00
  50                  -0.00      0.00      0.00
  76                  -0.00      0.00      0.00
  82                  -0.00      0.00      0.00
  83                  -0.00      0.00      0.00
  91                  -0.00      0.00      0.00
  97                  -0.00      0.00      0.00
  104                 -0.00      0.00      0.00
  111                 -0.00      0.00      0.00
  112                 -0.00      0.00      0.00
  118                 -0.00      0.00      0.00
  124                  0.00      0.00      0.00
  131                  0.00      0.00      0.00
  138                 -0.00      0.00      0.00
  77                  -0.00     -0.00      0.00
  5                    0.00      0.00      0.00
  9                    0.00      0.00      0.00
  17                   0.00      0.00      0.00
  35                   0.00      0.00      0.00
  36                   0.00      0.00      0.00
  37                   0.00      0.00      0.00
  39                   0.00      0.00      0.00
  61                  -0.00      0.00      0.00
  62                   0.00      0.00      0.00
  63                   0.00      0.00      0.00
  65                   0.00      0.00      0.00
  34                  -0.00      0.00      0.00
  88                   0.00      0.00      0.00
  95                   0.00      0.00      0.00
  96                   0.00      0.00      0.00
  20                  -0.00      0.00      0.00
  98                  -0.00      0.00      0.00
  100                  0.00      0.00      0.00
  102                  0.00      0.00      0.00
  109                 -0.00      0.00      0.00
  116                  0.00      0.00      0.00
  122                  0.00      0.00      0.00
  125                  0.00      0.00      0.00
  PUMP_01              0.00      0.00    -30.00  Pump
  PUMP_02              0.00      0.00    -30.00  Pump
  PUMP_03              0.00      0.00    -30.00  Pump
  RIKO_01              0.00      0.00      0.00  FCV
  RIKO_02              0.00      0.00      0.00  FCV
  BF-GFN_01            0.00      0.00      0.00  TCV
  BF-FN_02             0.00      0.00      0.00  TCV
  BF-FN_01            -0.00     -0.00      0.00  TCV
  BF-GFN_02            0.00      0.00      0.00  TCV
  BF-FN_04             0.00      0.00      0.00  TCV
  BF-FN_03             0.00      0.00      0.00  TCV
  BF-GFN_03            0.00      0.00      0.00  TCV
  BF-FN_06             0.00      0.00      0.00  TCV
  BF-FN_05             0.00      0.00      0.00  TCV
  BF-FN_08             0.00      0.00      0.00  TCV
  BF-FN_07             0.00      0.00      0.00  TCV
  BF-GFN_04            0.00      0.00      0.00  TCV
  BF-GFV_01            0.00      0.00      0.00  TCV
  BF-FV_01             0.00      0.00      0.00  TCV
  BF-FV_02             0.00      0.00      0.00  TCV
  BF-FV_03             0.00      0.00      0.00  TCV
  BF-FV_04             0.00      0.00      0.00  TCV
  BF-GFV_02            0.00      0.00      0.00  TCV
  BF-FV_05             0.00      0.00      0.00  TCV
  BF-FV_06             0.00      0.00      0.00  TCV
  BF-FV_07             0.00      0.00      0.00  TCV
  BF-FV_08             0.00      0.00      0.00  TCV
  BF-GFV_03            0.00      0.00      0.00  TCV
  BF-FV_09             0.00      0.00      0.00  TCV
  BF-FV_10             0.00      0.00      0.00  TCV
  BF-FV_11             0.00      0.00      0.00  TCV
  BF-FV_12             0.00      0.00      0.00  TCV
  BF-GFV_04            0.00      0.00      0.00  TCV
  BF-FV_13             0.00      0.00      0.00  TCV
  BF-FV_14             0.00      0.00      0.00  TCV
  BF-FV_15             0.00      0.00      0.00  TCV
  BF-FV_16             0.00      0.00      0.00  TCV
   
  Analysis ended Thu Jul 02 13:58:25 2020
