  Page 1                                             7/6/2020 3:13:07 PM
  **********************************************************************
  *                             E P A N E T                            *
  *                     Hydraulic and Water Quality                    *
  *                     Analysis for Pipe Networks                     *
  *                           Version 2.0                              *
  **********************************************************************
  
  Input File: wiesner_rta_026.net
  
  
  
  Link - Node Table:
  ----------------------------------------------------------------------
  Link           Start          End                Length  Diameter
  ID             Node           Node                    m        mm
  ----------------------------------------------------------------------
  PL-01-003-004  ND-01-003      ND-01-004           17.42      1800
  PL-01-004-005  ND-01-004      ND-01-005           65.93      1800
  PL-01-005-006  ND-01-005      ND-01-006            7.78      1353
  PL-01-008-009  ND-01-008      ND-01-009           4.375      1353
  PL-01-009-010  ND-01-009      ND-01-010           1.821      1353
  PL-01-010-011  ND-01-010      ND-01-011               4      1353
  PL-01-011-012  ND-01-011      ND-01-012           1.673      1353
  PL-01-013-014  ND-01-013      ND-01-014            2.95      1353
  PL-01-014-015  ND-01-014      ND-01-015          13.154      1353
  PL-01-015-016  ND-01-015      ND-01-016            5.17      1353
  PL-01-016-017  ND-01-016      ND-01-017           8.565      1353
  PL-01-017-018  ND-01-017      ND-01-018            5.25      1353
  PL-01-018-019  ND-01-018      ND-01-019           3.395      1353
  PL-01-020-021  ND-01-020      ND-01-021               3      1353
  PL-02-005-006  ND-01-005      ND-02-006               4      1200
  PL-02-006-007  ND-02-006      ND-02-007            3.61      1200
  PL-02-007-008  ND-02-007      ND-02-008            8.77      1200
  PL-02-010-011  ND-02-010      ND-02-011           2.357      1353
  PL-02-011-012  ND-02-011      ND-02-012           3.142      1353
  PL-02-012-013  ND-02-012      ND-02-013           2.948      1353
  PL-02-015-016  ND-02-015      ND-02-016           7.663      1353
  PL-02-016-017  ND-02-016      ND-02-017            2.88      1353
  PL-02-017-018  ND-02-017      ND-02-018            4.86      1353
  PL-02-018-019  ND-02-018      ND-02-019            8.54      1353
  PL-02-019-020  ND-02-019      ND-02-020             4.8      1353
  PL-02-020-021  ND-02-020      ND-02-021            4.89      1353
  PL-02-021-022  ND-02-021      ND-02-022            4.66      1353
  PL-02-022-023  ND-02-022      ND-02-023            2.88      1353
  PL-02-023-024  ND-02-023      ND-02-024               3      1353
  1              1              ND-02-009           1.204      1200
  2              ND-02-008      1                     1.2      1200
  3              ND-02-013      2                   2.231      1353
  4              2              3                    2.74      1353
  6              4              5                   1.468      1353
  7              5              6                   7.218      1353
  8              6              7                    2.18      1353
  10             8              9                    1.11      1295


  Page 2                                                                
  Link - Node Table: (continued)
  ----------------------------------------------------------------------
  Link           Start          End                Length  Diameter
  ID             Node           Node                    m        mm
  ----------------------------------------------------------------------
  11             9              FN_02                1.89      1295
  13             6              11                    2.3      1353
  14             11             12                  18.94      1353
  15             12             13                    2.1      1353
  18             15             16                   1.11      1295
  19             16             FN_01                1.89      1295
  22             ND-02-015      18                   2.74      1353
  23             19             20                  1.468      1353
  24             20             21                  7.218      1353
  25             21             22                   2.18      1353
  27             23             24                    1.1      1295
  28             24             FN_04                1.89      1295
  30             21             26                    2.3      1353
  31             26             27                  18.94      1353
  32             27             28                    2.1      1353
  33             29             30                    1.1      1295
  38             ND-02-022      32                   2.74      1353
  40             34             35                  7.218      1353
  41             35             36                   2.18      1353
  42             37             38                    1.1      1295
  43             38             FN_06                1.89      1295
  44             35             39                    2.3      1353
  45             39             40                  18.94      1353
  46             40             41                    2.1      1353
  47             42             43                    1.1      1295
  48             43             FN_05                1.89      1295
  49             33             34                  1.468      1353
  51             47             48                  1.468      1353
  52             48             49                  7.218      1353
  53             49             50                   2.18      1353
  54             51             59                    1.1      1295
  55             59             FN_08                1.89      1295
  56             49             52                    2.3      1353
  57             52             53                  18.94      1353
  58             53             54                    2.1      1353
  59             55             56                   1.11      1295
  60             56             FN_07                1.89      1295
  64             ND-01-006      ND-01-007           0.844      1353
  66             ND-01-012      62                   2.74      1353
  67             ND-01-014      61                   2.74      1353
  68             ND-01-019      63                  7.162      1353
  69             63             ND-01-020           8.062      1353
  70             63             64                   2.74      1353
  71             ND-01-021      65                  3.202      1353
  72             66             67                  1.468      1353
  73             67             68                   7.22      1353
  74             68             69                   2.18      1353


  Page 3                                                                
  Link - Node Table: (continued)
  ----------------------------------------------------------------------
  Link           Start          End                Length  Diameter
  ID             Node           Node                    m        mm
  ----------------------------------------------------------------------
  75             70             71                      1     861.9
  78             72             73                  18.94      1353
  79             73             74                    2.2      1353
  80             74             75                   2.18      1353
  84             74             79                    2.3      1353
  85             79             80                  18.94      1353
  86             80             81                    2.2      1353
  87             81             82                   2.18      1353
  89             76             78                      1     861.9
  90             83             84                      1     861.9
  92             81             86                    2.3      1353
  93             86             87                  18.94      1353
  94             87             88                    2.1      1353
  99             92             93                  1.468      1353
  101            94             95                   2.18      1353
  103            96             97                      1     861.9
  105            94             99                    2.3      1353
  106            99             100                 18.94      1353
  107            100            101                   2.2      1353
  108            101            102                  2.18      1353
  110            103            104                     1     861.9
  113            106            107                 18.94      1353
  114            107            108                   2.2      1353
  115            108            109                  2.18      1353
  117            110            111                     1     861.9
  119            108            113                   2.3      1353
  120            113            114                 18.94      1353
  121            114            115                   2.1      1353
  123            116            117                     1     861.9
  126            119            120                 1.468      1353
  127            120            121                  7.22      1353
  128            121            122                  2.18      1353
  130            123            124                     1     861.9
  132            121            126                   2.3      1353
  133            126            127                 18.94      1353
  134            127            128                   2.2      1353
  135            128            129                  2.18      1353
  137            130            131                     1     861.9
  139            128            133                   2.3      1353
  141            134            135                   2.2      1353
  142            135            136                  2.18      1353
  144            137            138                     1     861.9
  147            140            141                 18.94      1353
  148            141            142                   2.1      1353
  150            143            144                     1     861.9
  154            147            148                  7.22      1353
  155            148            149                  2.18      1353


  Page 4                                                                
  Link - Node Table: (continued)
  ----------------------------------------------------------------------
  Link           Start          End                Length  Diameter
  ID             Node           Node                    m        mm
  ----------------------------------------------------------------------
  157            150            151                     1     861.9
  159            148            153                   2.3      1353
  160            153            154                  18.9      1353
  161            154            155                   2.2      1353
  162            155            156                  2.18      1353
  164            157            158                     1     861.9
  166            155            160                   2.3      1353
  167            160            161                  18.4      1353
  168            161            162                   2.2      1353
  169            162            163                  2.18      1353
  171            164            165                     1     861.9
  174            167            168                  18.9      1353
  175            168            169                   2.1      1353
  177            170            171                     1     861.9
  179            71             173                     1     861.9
  180            71             174                     1     861.9
  182            173            175                  6.45     861.9
  183            174            176                  6.45     861.9
  184            175            FV_01                 0.1     861.9
  185            176            FV_01                 0.1     861.9
  186            178            78                      1     861.9
  187            78             177                     1     861.9
  189            180            FV_02                 0.1     861.9
  190            FV_02          179                   0.1     861.9
  191            179            178                  6.45     861.9
  192            182            97                      1     861.9
  193            97             183                     1     861.9
  194            183            185                  6.45     861.9
  195            182            184                  6.45     861.9
  196            184            FV_05                 0.1     861.9
  197            FV_05          185                   0.1     861.9
  198            188            FV_09                 0.1     861.9
  199            FV_09          189                   0.1     861.9
  200            189            191                  6.45     861.9
  201            191            124                     1     861.9
  202            124            190                     1     861.9
  203            190            188                  6.45     861.9
  204            198            131                     1     861.9
  205            131            199                     1     861.9
  206            199            197                  6.45     861.9
  207            197            FV_10                 0.1     861.9
  208            FV_10          196                   0.1     861.9
  209            196            198                  6.45     861.9
  210            FV_06          194                   0.1     861.9
  211            194            193                  6.45     861.9
  212            193            104                     1     861.9
  213            104            192                     1     861.9


  Page 5                                                                
  Link - Node Table: (continued)
  ----------------------------------------------------------------------
  Link           Start          End                Length  Diameter
  ID             Node           Node                    m        mm
  ----------------------------------------------------------------------
  214            192            195                  6.45     861.9
  216            FV_07          206                   0.1     861.9
  217            206            204                  6.45     861.9
  218            204            111                     1     861.9
  219            111            205                     1     861.9
  221            207            FV_07                 0.1     861.9
  222            217            117                     1     861.9
  223            117            216                     1     861.9
  224            216            215                  6.45     861.9
  225            215            FV_08                 0.1     861.9
  226            FV_08          214                   0.1     861.9
  227            214            217                  6.45     861.9
  228            FV_12          220                   0.1     861.9
  229            220            218                  6.45     861.9
  230            218            144                     1     861.9
  231            144            219                     1     861.9
  232            219            221                  6.45     861.9
  234            FV_11          202                   0.1     861.9
  235            202            200                  6.45     861.9
  236            200            138                     1     861.9
  237            138            201                     1     861.9
  238            201            203                  6.45     861.9
  239            203            FV_11                 0.1     861.9
  240            84             222                     1     861.9
  241            222            225                  6.45     861.9
  242            225            FV_03                 0.1     861.9
  243            FV_03          224                   0.1     861.9
  244            224            223                  6.35     861.9
  245            223            84                      1     861.9
  246            226            90                      1     861.9
  247            90             227                     1     861.9
  248            227            228                  6.45     861.9
  249            228            FV_04                 0.1     861.9
  250            FV_04          229                   0.1     861.9
  251            229            226                  6.45     861.9
  255            151            238                     1     861.9
  256            238            240                  6.45     861.9
  257            240            FV_13                 0.1     861.9
  258            151            239                     1     861.9
  260            241            FV_13                 0.1     861.9
  261            158            242                     1     861.9
  262            242            244                  6.45     861.9
  263            158            243                     1     861.9
  264            243            245                  6.45     861.9
  265            245            FV_14                 0.1     861.9
  267            165            246                     1     861.9
  269            248            FV_15                 0.1     861.9


  Page 6                                                                
  Link - Node Table: (continued)
  ----------------------------------------------------------------------
  Link           Start          End                Length  Diameter
  ID             Node           Node                    m        mm
  ----------------------------------------------------------------------
  270            165            247                     1     861.9
  271            247            249                  6.45     861.9
  272            249            FV_15                 0.1     861.9
  273            171            250                     1     861.9
  274            171            251                     1     861.9
  275            250            252                  6.45     861.9
  276            251            253                  6.45     861.9
  279            239            241                  6.45     861.9
  280            246            248                  6.45     861.9
  12             101            106                   2.3      1353
  16             146            147                 1.468      1353
  50             162            167                   2.3      1353
  76             253            FV_16                 0.1     861.9
  82             252            FV_16                 0.1     861.9
  83             244            FV_14                 0.1     861.9
  91             133            134                  18.4      1353
  97             135            140                   2.3      1353
  104            221            FV_12                 0.1     861.9
  111            93             94                   7.22      1353
  112            195            FV_06                 0.1     861.9
  118            205            207                  6.45     861.9
  124            68             72                    2.3      1353
  131            177            180                  6.45     861.9
  138            89             90                      1     861.9
  77             77             ND-01-003            4.53    1371.6
  5              CDC            46                    3.2       654
  9              46             91                      1       654
  17             46             98                      1       654
  35             105            112                 8.123       654
  36             118            132                 8.123       654
  37             125            139                 8.123       654
  39             112            132                     5       654
  61             132            139                     5       654
  62             132            145                121.70       914
  63             145            152                 20.32       914
  65             152            159                 73.04       914
  34             30             FN_03                1.89      1295
  88             TAF_01         77                   6.26    1371.6
  95             TAF_02         85                   6.26    1371.6
  96             85             ND-01-003            4.53    1371.6
  20             2              236                     5      1353
  98             236            ND-02-015           0.455      1353
  100            ND-01-012      237                     2      1353
  102            237            ND-01-013           0.635      1353
  109            237            14                   3.41      1353
  116            159            255                   5.2       914
  122            255            254                    18       914


  Page 7                                                                
  Link - Node Table: (continued)
  ----------------------------------------------------------------------
  Link           Start          End                Length  Diameter
  ID             Node           Node                    m        mm
  ----------------------------------------------------------------------
  125            254            ND-02-006            5.20       914
  21             10             236                  3.41      1353
  PUMP_01        91             105                  #N/A      #N/A Pump
  PUMP_02        46             118                  #N/A      #N/A Pump
  PUMP_03        98             125                  #N/A      #N/A Pump
  RIKO_01        ND-01-007      ND-01-008            #N/A      1000 Valve
  RIKO_02        ND-02-009      ND-02-010            #N/A      1000 Valve
  BF_GFN_01      3              4                    #N/A      1353 Valve
  BF_FN_02       7              8                    #N/A      1200 Valve
  BF_FN_01       13             15                   #N/A      1200 Valve
  BF_GFN_02      18             19                   #N/A      1353 Valve
  BF_FN_04       22             23                   #N/A      1200 Valve
  BF_FN_03       28             29                   #N/A      1200 Valve
  BF_GFN_03      32             33                   #N/A      1353 Valve
  BF_FN_06       36             37                   #N/A      1200 Valve
  BF_FN_05       41             42                   #N/A      1200 Valve
  BF_FN_08       50             51                   #N/A      1200 Valve
  BF_FN_07       54             55                   #N/A      1200 Valve
  BF_GFN_04      ND-02-024      47                   #N/A      1353 Valve
  BF_GFV_01      62             66                   #N/A      1200 Valve
  BF_FV_01       69             70                   #N/A      1200 Valve
  BF_FV_02       75             76                   #N/A      1200 Valve
  BF_FV_03       82             83                   #N/A      1200 Valve
  BF_FV_04       88             89                   #N/A      1200 Valve
  BF_GFV_02      61             92                   #N/A      1200 Valve
  BF_FV_05       95             96                   #N/A      1200 Valve
  BF_FV_06       102            103                  #N/A      1200 Valve
  BF_FV_07       109            110                  #N/A      1200 Valve
  BF_FV_08       115            116                  #N/A      1200 Valve
  BF_GFV_03      64             119                  #N/A      1200 Valve
  BF_FV_09       122            123                  #N/A      1200 Valve
  BF_FV_10       129            130                  #N/A      1200 Valve
  BF_FV_11       136            137                  #N/A      1200 Valve
  BF_FV_12       142            143                  #N/A      1200 Valve
  BF_GFV_04      65             146                  #N/A      1200 Valve
  BF_FV_13       149            150                  #N/A      1200 Valve
  BF_FV_14       156            157                  #N/A      1200 Valve
  BF_FV_15       163            164                  #N/A      1200 Valve
  BF_FV_16       169            170                  #N/A      1200 Valve
  BF_CONECT      14             10                   #N/A      1200 Valve
  


  Page 8                                                                
  Energy Usage:
  ----------------------------------------------------------------------
                    Usage   Avg.     Kw-hr      Avg.      Peak      Cost
  Pump             Factor Effic.     /m3        Kw        Kw      /day
  ----------------------------------------------------------------------
  PUMP_01          100.00  75.00      0.09    113.07    125.54      0.00
  PUMP_02          100.00  75.00      0.09    113.16    125.65      0.00
  PUMP_03          100.00  75.00      0.09    113.07    125.54      0.00
  ----------------------------------------------------------------------
                                                Demand Charge:      0.00
                                                Total Cost:         0.00
  
  Node Results at 0:00 Hrs:
  ----------------------------------------------------------------------
  Node                Demand      Head  Pressure   Quality
  ID                     LPS         m         m          
  ----------------------------------------------------------------------
  ND-01-003             0.00   2814.88      7.82      0.00
  ND-01-004             0.00   2814.75     18.00      0.00
  ND-01-005             0.00   2814.68     17.93      0.00
  ND-01-006             0.00   2814.67     17.92      0.00
  ND-01-007             0.00   2814.60     17.78      0.00
  ND-01-008             0.00   2804.45      7.63      0.00
  ND-01-009             0.00   2804.38      7.45      0.00
  ND-01-010             0.00   2804.30      7.02      0.00
  ND-01-011             0.00   2804.23      5.32      0.00
  ND-01-012             0.00   2804.23      5.35      0.00
  ND-01-013             0.00   2803.91      5.05      0.00
  ND-01-014             0.00   2803.90      5.01      0.00
  ND-01-015             0.00   2803.80      4.95      0.00
  ND-01-016             0.00   2803.72      7.12      0.00
  ND-01-017             0.00   2803.63      6.96      0.00
  ND-01-018             0.00   2803.55      4.66      0.00
  ND-01-019             0.00   2803.53      4.65      0.00
  ND-01-020             0.00   2803.35      4.50      0.00
  ND-01-021             0.00   2803.22      4.34      0.00
  ND-02-006             0.00   2814.53     17.92      0.00
  ND-02-007             0.00   2814.31     17.70      0.00
  ND-02-008             0.00   2814.05     17.44      0.00
  ND-02-009             0.00   2813.91     17.16      0.00
  ND-02-010             0.00   2803.67      6.92      0.00
  ND-02-011             0.00   2803.60      6.85      0.00
  ND-02-012             0.00   2803.53      5.93      0.00
  ND-02-013             0.00   2803.45      4.57      0.00
  ND-02-015             0.00   2803.14      4.26      0.00
  ND-02-016             0.00   2803.11      4.24      0.00
  ND-02-017             0.00   2803.04      4.16      0.00
  ND-02-018             0.00   2802.96      6.31      0.00
  ND-02-019             0.00   2802.88      6.22      0.00
  ND-02-020             0.00   2802.80      3.93      0.00
  ND-02-021             0.00   2802.78      3.91      0.00
  ND-02-022             0.00   2802.78      3.90      0.00


  Page 9                                                                
  Node Results at 0:00 Hrs: (continued)
  ----------------------------------------------------------------------
  Node                Demand      Head  Pressure   Quality
  ID                     LPS         m         m          
  ----------------------------------------------------------------------
  ND-02-023             0.00   2802.61      3.73      0.00
  ND-02-024             0.00   2802.48      3.60      0.00
  1                     0.00   2813.93     17.18      0.00
  2                     0.00   2803.45      4.57      0.00
  3                     0.00   2803.45      4.57      0.00
  4                     0.00   2803.45      4.57      0.00
  5                     0.00   2803.45      4.57      0.00
  6                     0.00   2803.45      4.57      0.00
  7                     0.00   2803.45      4.57      0.00
  8                     0.00   2800.47      2.39      0.00
  9                     0.00   2800.47      3.50      0.00
  11                    0.00   2803.45      4.57      0.00
  12                    0.00   2803.45      4.57      0.00
  13                    0.00   2803.45      4.57      0.00
  15                    0.00   2800.47      2.39      0.00
  16                    0.00   2800.47      3.50      0.00
  18                    0.00   2803.14      4.26      0.00
  19                    0.00   2803.14      4.26      0.00
  20                    0.00   2803.14      4.26      0.00
  21                    0.00   2803.14      4.26      0.00
  22                    0.00   2803.14      4.26      0.00
  23                    0.00   2800.47      2.39      0.00
  24                    0.00   2800.47      3.50      0.00
  26                    0.00   2803.14      4.26      0.00
  27                    0.00   2803.14      4.26      0.00
  28                    0.00   2803.14      4.26      0.00
  29                    0.00   2800.47      2.39      0.00
  30                    0.00   2800.47      3.50      0.00
  32                    0.00   2802.78      4.02      0.00
  33                    0.00   2802.78      3.90      0.00
  34                    0.00   2802.78      3.90      0.00
  35                    0.00   2802.78      3.90      0.00
  36                    0.00   2802.78      3.90      0.00
  37                    0.00   2800.47      2.39      0.00
  38                    0.00   2800.47      3.50      0.00
  39                    0.00   2802.78      3.90      0.00
  40                    0.00   2802.78      3.90      0.00
  41                    0.00   2802.78      3.90      0.00
  42                    0.00   2800.47      2.39      0.00
  43                    0.00   2800.47      3.50      0.00
  47                    0.00   2802.43      3.55      0.00
  48                    0.00   2802.41      3.53      0.00
  49                    0.00   2802.39      3.51      0.00
  50                    0.00   2802.39      3.51      0.00
  51                    0.00   2800.47      2.39      0.00
  52                    0.00   2802.22      3.34      0.00
  53                    0.00   2802.18      3.30      0.00


  Page 10                                                               
  Node Results at 0:00 Hrs: (continued)
  ----------------------------------------------------------------------
  Node                Demand      Head  Pressure   Quality
  ID                     LPS         m         m          
  ----------------------------------------------------------------------
  54                    0.00   2802.05      3.17      0.00
  55                    0.00   2801.97      3.89      0.00
  56                    0.00   2801.61      4.64      0.00
  59                    0.00   2800.47      3.50      0.00
  61                    0.00   2803.90      5.03      0.00
  62                    0.00   2804.23      5.35      0.00
  63                    0.00   2803.52      4.66      0.00
  64                    0.00   2803.52      4.65      0.00
  65                    0.00   2803.08      4.23      0.00
  66                    0.00   2804.23      5.35      0.00
  67                    0.00   2804.23      5.35      0.00
  68                    0.00   2804.23      5.35      0.00
  69                    0.00   2804.23      5.35      0.00
  70                    0.00   2800.47      2.39      0.00
  71                    0.00   2800.47      3.39      0.00
  72                    0.00   2804.23      5.35      0.00
  73                    0.00   2804.23      5.35      0.00
  74                    0.00   2804.23      5.35      0.00
  75                    0.00   2804.23      5.35      0.00
  76                    0.00   2800.47      2.39      0.00
  78                    0.00   2800.47      3.39      0.00
  79                    0.00   2804.23      5.35      0.00
  80                    0.00   2804.23      5.35      0.00
  81                    0.00   2804.23      5.35      0.00
  82                    0.00   2804.23      5.35      0.00
  83                    0.00   2800.47      2.39      0.00
  84                    0.00   2800.47      3.39      0.00
  86                    0.00   2804.23      5.35      0.00
  87                    0.00   2804.23      5.35      0.00
  88                    0.00   2804.23      5.35      0.00
  89                    0.00   2800.47      2.39      0.00
  90                    0.00   2800.47      3.39      0.00
  92                    0.00   2803.90      5.03      0.00
  93                    0.00   2803.90      5.03      0.00
  94                    0.00   2803.90      5.03      0.00
  95                    0.00   2803.90      5.03      0.00
  96                    0.00   2800.47      2.39      0.00
  97                    0.00   2800.47      3.39      0.00
  99                    0.00   2803.90      5.03      0.00
  100                   0.00   2803.90      5.03      0.00
  101                   0.00   2803.90      5.03      0.00
  102                   0.00   2803.90      5.03      0.00
  103                   0.00   2800.47      2.39      0.00
  104                   0.00   2800.47      3.39      0.00
  106                   0.00   2803.90      5.03      0.00
  107                   0.00   2803.90      5.03      0.00
  108                   0.00   2803.90      5.03      0.00


  Page 11                                                               
  Node Results at 0:00 Hrs: (continued)
  ----------------------------------------------------------------------
  Node                Demand      Head  Pressure   Quality
  ID                     LPS         m         m          
  ----------------------------------------------------------------------
  109                   0.00   2803.90      5.03      0.00
  110                   0.00   2800.47      2.39      0.00
  111                   0.00   2800.47      3.39      0.00
  113                   0.00   2803.90      5.03      0.00
  114                   0.00   2803.90      5.03      0.00
  115                   0.00   2803.90      5.03      0.00
  116                   0.00   2800.47      2.39      0.00
  117                   0.00   2800.47      3.39      0.00
  119                   0.00   2803.52      4.65      0.00
  120                   0.00   2803.52      4.64      0.00
  121                   0.00   2803.52      4.65      0.00
  122                   0.00   2803.52      4.65      0.00
  123                   0.00   2800.47      2.39      0.00
  124                   0.00   2800.47      3.39      0.00
  126                   0.00   2803.52      4.65      0.00
  127                   0.00   2803.52      4.65      0.00
  128                   0.00   2803.52      4.65      0.00
  129                   0.00   2803.52      4.65      0.00
  130                   0.00   2800.47      3.39      0.00
  131                   0.00   2800.47      3.39      0.00
  133                   0.00   2803.52      4.65      0.00
  134                   0.00   2803.52      4.65      0.00
  135                   0.00   2803.52      4.65      0.00
  136                   0.00   2803.52      4.65      0.00
  137                   0.00   2800.47      3.39      0.00
  138                   0.00   2800.47      3.39      0.00
  140                   0.00   2803.52      4.65      0.00
  141                   0.00   2803.52      4.65      0.00
  142                   0.00   2803.52      4.65      0.00
  143                   0.00   2800.47      3.39      0.00
  144                   0.00   2800.47      3.39      0.00
  146                   0.00   2803.00      4.15      0.00
  147                   0.00   2802.99      4.13      0.00
  148                   0.00   2802.98      4.10      0.00
  149                   0.00   2802.98      4.10      0.00
  150                   0.00   2800.47      3.39      0.00
  151                   0.00   2800.47      3.39      0.00
  153                   0.00   2802.97      4.10      0.00
  154                   0.00   2802.95      4.07      0.00
  155                   0.00   2802.95      4.07      0.00
  156                   0.00   2802.95      4.07      0.00
  157                   0.00   2800.47      3.39      0.00
  158                   0.00   2800.47      3.39      0.00
  160                   0.00   2802.94      4.07      0.00
  161                   0.00   2802.90      4.03      0.00
  162                   0.00   2802.90      4.02      0.00
  163                   0.00   2802.90      4.02      0.00


  Page 12                                                               
  Node Results at 0:00 Hrs: (continued)
  ----------------------------------------------------------------------
  Node                Demand      Head  Pressure   Quality
  ID                     LPS         m         m          
  ----------------------------------------------------------------------
  164                   0.00   2800.47      3.39      0.00
  165                   0.00   2800.47      3.39      0.00
  167                   0.00   2802.90      4.02      0.00
  168                   0.00   2802.86      3.98      0.00
  169                   0.00   2802.73      3.85      0.00
  170                   0.00   2802.65      5.57      0.00
  171                   0.00   2802.63      5.56      0.00
  173                   0.00   2800.47      3.39      0.00
  174                   0.00   2800.47      3.39      0.00
  175                   0.00   2800.47      3.39      0.00
  176                   0.00   2800.47      3.39      0.00
  177                   0.00   2800.47      3.39      0.00
  178                   0.00   2800.47      3.39      0.00
  179                   0.00   2800.47      3.39      0.00
  180                   0.00   2800.47      3.39      0.00
  182                   0.00   2800.47      3.39      0.00
  183                   0.00   2800.47      3.39      0.00
  184                   0.00   2800.47      3.39      0.00
  185                   0.00   2800.47      3.39      0.00
  188                   0.00   2800.47      3.39      0.00
  189                   0.00   2800.47      3.39      0.00
  190                   0.00   2800.47      3.39      0.00
  191                   0.00   2800.47      3.39      0.00
  192                   0.00   2800.47      3.39      0.00
  193                   0.00   2800.47      3.39      0.00
  194                   0.00   2800.47      3.39      0.00
  195                   0.00   2800.47      3.39      0.00
  196                   0.00   2800.47      3.39      0.00
  197                   0.00   2800.47      3.39      0.00
  198                   0.00   2800.47      3.39      0.00
  199                   0.00   2800.47      3.39      0.00
  200                   0.00   2800.47      3.39      0.00
  201                   0.00   2800.47      3.39      0.00
  202                   0.00   2800.47      3.39      0.00
  203                   0.00   2800.47      3.39      0.00
  204                   0.00   2800.47      3.39      0.00
  205                   0.00   2800.47      3.39      0.00
  206                   0.00   2800.47      3.39      0.00
  207                   0.00   2800.47      3.39      0.00
  214                   0.00   2800.47      3.39      0.00
  215                   0.00   2800.47      3.39      0.00
  216                   0.00   2800.47      3.39      0.00
  217                   0.00   2800.47      3.39      0.00
  218                   0.00   2800.47      3.39      0.00
  219                   0.00   2800.47      3.39      0.00
  220                   0.00   2800.47      3.39      0.00
  221                   0.00   2800.47      3.39      0.00


  Page 13                                                               
  Node Results at 0:00 Hrs: (continued)
  ----------------------------------------------------------------------
  Node                Demand      Head  Pressure   Quality
  ID                     LPS         m         m          
  ----------------------------------------------------------------------
  222                   0.00   2800.47      3.39      0.00
  223                   0.00   2800.47      3.39      0.00
  224                   0.00   2800.47      3.39      0.00
  225                   0.00   2800.47      3.39      0.00
  226                   0.00   2800.47      3.39      0.00
  227                   0.00   2800.47      3.39      0.00
  228                   0.00   2800.47      3.39      0.00
  229                   0.00   2800.47      3.39      0.00
  238                   0.00   2800.47      3.39      0.00
  239                   0.00   2800.47      3.39      0.00
  240                   0.00   2800.47      3.39      0.00
  241                   0.00   2800.47      3.39      0.00
  242                   0.00   2800.47      3.39      0.00
  243                   0.00   2800.47      3.39      0.00
  244                   0.00   2800.47      3.39      0.00
  245                   0.00   2800.47      3.39      0.00
  246                   0.00   2800.47      3.39      0.00
  247                   0.00   2800.47      3.39      0.00
  248                   0.00   2800.47      3.39      0.00
  249                   0.00   2800.47      3.39      0.00
  250                   0.00   2802.15      5.07      0.00
  251                   0.00   2802.15      5.07      0.00
  252                   0.00   2801.66      4.58      0.00
  253                   0.00   2801.66      4.58      0.00
  77                    0.00   2814.93      7.22      0.00
  85                    0.00   2814.93      7.22      0.00
  46                    0.00   2789.96     -1.38      0.00
  91                    0.00   2789.96     -1.38      0.00
  98                    0.00   2789.96     -1.38      0.00
  105                   0.00   2815.66     24.32      0.00
  112                   0.00   2815.63     24.30      0.00
  118                   0.00   2815.66     24.32      0.00
  125                   0.00   2815.66     24.32      0.00
  132                   0.00   2815.63     24.29      0.00
  139                   0.00   2815.63     24.30      0.00
  145                   0.00   2815.17     17.67      0.00
  152                   0.00   2815.00     23.47      0.00
  159                   0.00   2814.91     23.38      0.00
  236                   0.00   2803.14      4.26      0.00
  237                   0.00   2803.92      5.04      0.00
  254                   0.00   2814.56     17.95      0.00
  255                   0.00   2814.77     18.16      0.00
  10                    0.00   2803.14   2803.14      0.00
  14                    0.00   2803.92   2803.92      0.00
  FN_02                 0.00   2800.47      0.00      0.00 Reservoir
  FN_01                 0.00   2800.47      0.00      0.00 Reservoir
  FN_04                 0.00   2800.47      0.00      0.00 Reservoir


  Page 14                                                               
  Node Results at 0:00 Hrs: (continued)
  ----------------------------------------------------------------------
  Node                Demand      Head  Pressure   Quality
  ID                     LPS         m         m          
  ----------------------------------------------------------------------
  FN_03                 0.00   2800.47      0.00      0.00 Reservoir
  FN_06                 0.00   2800.47      0.00      0.00 Reservoir
  FN_05                 0.00   2800.47      0.00      0.00 Reservoir
  FN_08                 0.00   2800.47      0.00      0.00 Reservoir
  FN_07              2609.99   2800.47      0.00      0.00 Reservoir
  FV_01                 0.00   2800.47      0.00      0.00 Reservoir
  FV_02                 0.00   2800.47      0.00      0.00 Reservoir
  FV_05                 0.00   2800.47      0.00      0.00 Reservoir
  FV_09                 0.00   2800.47      0.00      0.00 Reservoir
  FV_06                 0.00   2800.47      0.00      0.00 Reservoir
  FV_07                 0.00   2800.47      0.00      0.00 Reservoir
  FV_11                 0.00   2800.47      0.00      0.00 Reservoir
  FV_10                 0.00   2800.47      0.00      0.00 Reservoir
  FV_08                 0.00   2800.47      0.00      0.00 Reservoir
  FV_12                 0.00   2800.47      0.00      0.00 Reservoir
  FV_03                 0.00   2800.47      0.00      0.00 Reservoir
  FV_04                 0.00   2800.47      0.00      0.00 Reservoir
  FV_13                 0.00   2800.47      0.00      0.00 Reservoir
  FV_14                 0.00   2800.47      0.00      0.00 Reservoir
  FV_15                 0.00   2800.47      0.00      0.00 Reservoir
  FV_16              2610.00   2800.47      0.00      0.00 Reservoir
  CDC                -883.30   2790.24      0.00      0.00 Reservoir
  TAF_01            -2168.35   2815.09      5.00      0.00 Tank
  TAF_02            -2168.35   2815.09      5.00      0.00 Tank
  
  Link Results at 0:00 Hrs:
  ----------------------------------------------------------------------
  Link                  Flow  VelocityUnit Headloss    Status
  ID                     LPS       m/s      m/km
  ----------------------------------------------------------------------
  PL-01-003-004      4336.70      1.70      7.35      Open
  PL-01-004-005      4336.70      1.70      0.98      Open
  PL-01-005-006      2610.00      1.82      1.38      Open
  PL-01-008-009      2610.00      1.82     16.74      Open
  PL-01-009-010      2610.00      1.82     40.21      Open
  PL-01-010-011      2610.00      1.82     18.98      Open
  PL-01-011-012      2610.00      1.82      1.42      Open
  PL-01-013-014      2610.00      1.82      1.41      Open
  PL-01-014-015      2610.00      1.82      7.78      Open
  PL-01-015-016      2610.00      1.82     15.03      Open
  PL-01-016-017      2610.00      1.82     11.19      Open
  PL-01-017-018      2610.00      1.82     14.85      Open
  PL-01-018-019      2610.00      1.82      5.35      Open
  PL-01-020-021      2610.00      1.82     43.36      Open
  PL-02-005-006      1726.70      1.53     39.74      Open
  PL-02-006-007      2610.00      2.31     58.87      Open
  PL-02-007-008      2610.00      2.31     30.41      Open


  Page 15                                                               
  Link Results at 0:00 Hrs: (continued)
  ----------------------------------------------------------------------
  Link                  Flow  VelocityUnit Headloss    Status
  ID                     LPS       m/s      m/km
  ----------------------------------------------------------------------
  PL-02-010-011      2610.00      1.82     29.93      Open
  PL-02-011-012      2610.00      1.82     23.87      Open
  PL-02-012-013      2610.00      1.82     25.24      Open
  PL-02-015-016      2609.99      1.82      3.15      Open
  PL-02-016-017      2609.99      1.82     25.84      Open
  PL-02-017-018      2609.99      1.82     15.92      Open
  PL-02-018-019      2609.99      1.82      9.65      Open
  PL-02-019-020      2609.99      1.82     16.12      Open
  PL-02-020-021      2609.99      1.82      4.14      Open
  PL-02-021-022      2609.99      1.82      1.41      Open
  PL-02-022-023      2609.99      1.82     58.50      Open
  PL-02-023-024      2609.99      1.82     43.36      Open
  1                  2610.00      2.31     20.52      Open
  2                  2610.00      2.31     93.02      Open
  3                  2610.00      1.82      1.47      Open
  4                     0.00      0.00      0.00      Open
  6                     0.00      0.00      0.00      Open
  7                     0.00      0.00      0.00      Open
  8                     0.00      0.00      0.00      Open
  10                    0.00      0.00      0.00      Open
  11                    0.00      0.00      0.00      Open
  13                    0.00      0.00      0.00      Open
  14                    0.00      0.00      0.00      Open
  15                    0.00      0.00      0.00      Open
  18                    0.00      0.00      0.00      Open
  19                    0.00      0.00      0.00      Open
  22                    0.00      0.00      0.00      Open
  23                    0.00      0.00      0.00      Open
  24                    0.00      0.00      0.00      Open
  25                    0.00      0.00      0.00      Open
  27                    0.00      0.00      0.00      Open
  28                    0.00      0.00      0.00      Open
  30                    0.00      0.00      0.00      Open
  31                    0.00      0.00      0.00      Open
  32                    0.00      0.00      0.00      Open
  33                    0.00      0.00      0.00      Open
  38                    0.00      0.00      0.00      Open
  40                    0.00      0.00      0.00      Open
  41                    0.00      0.00      0.00      Open
  42                    0.00      0.00      0.00      Open
  43                    0.00      0.00      0.00      Open
  44                    0.00      0.00      0.00      Open
  45                    0.00      0.00      0.00      Open
  46                    0.00      0.00      0.00      Open
  47                    0.00      0.00      0.00      Open
  48                    0.00      0.00      0.00      Open
  49                    0.00      0.00      0.00      Open


  Page 16                                                               
  Link Results at 0:00 Hrs: (continued)
  ----------------------------------------------------------------------
  Link                  Flow  VelocityUnit Headloss    Status
  ID                     LPS       m/s      m/km
  ----------------------------------------------------------------------
  51                 2609.99      1.82     10.54      Open
  52                 2609.99      1.82      3.26      Open
  53                    0.00      0.00      0.00      Open
  54                    0.00      0.00      0.00      Open
  55                    0.00      0.00      0.00      Open
  56                 2609.99      1.82     72.99      Open
  57                 2609.99      1.82      2.11      Open
  58                 2609.99      1.82     61.37      Open
  59                 2609.99      1.98    326.08      Open
  60                 2609.99      1.98    601.77      Open
  64                 2610.00      1.82     81.11      Open
  66                    0.00      0.00      0.00      Open
  67                    0.00      0.00      0.00      Open
  68                 2610.00      1.82      1.41      Open
  69                 2610.00      1.82     21.78      Open
  70                    0.00      0.00      0.00      Open
  71                 2610.00      1.82     40.72      Open
  72                    0.00      0.00      0.00      Open
  73                    0.00      0.00      0.00      Open
  74                    0.00      0.00      0.00      Open
  75                    0.00      0.00      0.00      Open
  78                    0.00      0.00      0.00      Open
  79                    0.00      0.00      0.00      Open
  80                    0.00      0.00      0.00      Open
  84                    0.00      0.00      0.00      Open
  85                    0.00      0.00      0.00      Open
  86                    0.00      0.00      0.00      Open
  87                    0.00      0.00      0.00      Open
  89                    0.00      0.00      0.00      Open
  90                    0.00      0.00      0.00      Open
  92                    0.00      0.00      0.00      Open
  93                    0.00      0.00      0.00      Open
  94                    0.00      0.00      0.00      Open
  99                    0.00      0.00      0.00      Open
  101                   0.00      0.00      0.00      Open
  103                   0.00      0.00      0.00      Open
  105                   0.00      0.00      0.00      Open
  106                   0.00      0.00      0.00      Open
  107                   0.00      0.00      0.00      Open
  108                   0.00      0.00      0.00      Open
  110                   0.00      0.00      0.00      Open
  113                   0.00      0.00      0.00      Open
  114                   0.00      0.00      0.00      Open
  115                   0.00      0.00      0.00      Open
  117                   0.00      0.00      0.00      Open
  119                   0.00      0.00      0.00      Open
  120                   0.00      0.00      0.00      Open


  Page 17                                                               
  Link Results at 0:00 Hrs: (continued)
  ----------------------------------------------------------------------
  Link                  Flow  VelocityUnit Headloss    Status
  ID                     LPS       m/s      m/km
  ----------------------------------------------------------------------
  121                   0.00      0.00      0.00      Open
  123                   0.00      0.00      0.00      Open
  126                   0.00      0.00      0.00      Open
  127                   0.00      0.00      0.00      Open
  128                   0.00      0.00      0.00      Open
  130                   0.00      0.00      0.00      Open
  132                   0.00      0.00      0.00      Open
  133                   0.00      0.00      0.00      Open
  134                   0.00      0.00      0.00      Open
  135                   0.00      0.00      0.00      Open
  137                   0.00      0.00      0.00      Open
  139                   0.00      0.00      0.00      Open
  141                   0.00      0.00      0.00      Open
  142                   0.00      0.00      0.00      Open
  144                   0.00      0.00      0.00      Open
  147                   0.00      0.00      0.00      Open
  148                   0.00      0.00      0.00      Open
  150                   0.00      0.00      0.00      Open
  154                2610.00      1.82      1.40      Open
  155                   0.00      0.00      0.00      Open
  157                   0.00      0.00      0.00      Open
  159                2610.00      1.82      1.42      Open
  160                2610.00      1.82      1.40      Open
  161                2610.00      1.82      1.35      Open
  162                   0.00      0.00      0.00      Open
  164                   0.00      0.00      0.00      Open
  166                2610.00      1.82      1.42      Open
  167                2610.00      1.82      2.14      Open
  168                2610.00      1.82      1.35      Open
  169                   0.00      0.00      0.00      Open
  171                   0.00      0.00      0.00      Open
  174                2610.00      1.82      2.11      Open
  175                2610.00      1.82     61.37      Open
  177                2610.00      4.47     13.39      Open
  179                   0.00      0.00      0.00      Open
  180                   0.00      0.00      0.00      Open
  182                   0.00      0.00      0.00      Open
  183                   0.00      0.00      0.00      Open
  184                   0.00      0.00      0.00      Open
  185                   0.00      0.00      0.00      Open
  186                   0.02      0.00      0.00      Open
  187                   0.02      0.00      0.00      Open
  189                   0.02      0.00      0.00      Open
  190                   0.02      0.00      0.00      Open
  191                   0.02      0.00      0.00      Open
  192                  -0.01      0.00      0.00      Open
  193                  -0.01      0.00      0.00      Open


  Page 18                                                               
  Link Results at 0:00 Hrs: (continued)
  ----------------------------------------------------------------------
  Link                  Flow  VelocityUnit Headloss    Status
  ID                     LPS       m/s      m/km
  ----------------------------------------------------------------------
  194                  -0.01      0.00      0.00      Open
  195                   0.01      0.00      0.00      Open
  196                   0.01      0.00      0.00      Open
  197                   0.01      0.00      0.00      Open
  198                   0.02      0.00      0.00      Open
  199                   0.02      0.00      0.00      Open
  200                   0.02      0.00      0.00      Open
  201                   0.02      0.00      0.00      Open
  202                   0.02      0.00      0.00      Open
  203                   0.02      0.00      0.00      Open
  204                   0.02      0.00      0.00      Open
  205                   0.02      0.00      0.00      Open
  206                   0.02      0.00      0.00      Open
  207                   0.02      0.00      0.00      Open
  208                   0.02      0.00      0.00      Open
  209                   0.02      0.00      0.00      Open
  210                   0.02      0.00      0.00      Open
  211                   0.02      0.00      0.00      Open
  212                   0.02      0.00      0.00      Open
  213                   0.02      0.00      0.00      Open
  214                   0.02      0.00      0.00      Open
  216                   0.02      0.00      0.00      Open
  217                   0.02      0.00      0.00      Open
  218                   0.02      0.00      0.00      Open
  219                   0.02      0.00      0.00      Open
  221                   0.02      0.00      0.00      Open
  222                   0.02      0.00      0.00      Open
  223                   0.02      0.00      0.00      Open
  224                   0.02      0.00      0.00      Open
  225                   0.02      0.00      0.00      Open
  226                   0.02      0.00      0.00      Open
  227                   0.02      0.00      0.00      Open
  228                   0.02      0.00      0.00      Open
  229                   0.02      0.00      0.00      Open
  230                   0.02      0.00      0.00      Open
  231                   0.02      0.00      0.00      Open
  232                   0.02      0.00      0.00      Open
  234                   0.02      0.00      0.00      Open
  235                   0.02      0.00      0.00      Open
  236                   0.02      0.00      0.00      Open
  237                   0.02      0.00      0.00      Open
  238                   0.02      0.00      0.00      Open
  239                   0.02      0.00      0.00      Open
  240                   0.02      0.00      0.00      Open
  241                   0.02      0.00      0.00      Open
  242                   0.02      0.00      0.00      Open
  243                   0.02      0.00      0.00      Open


  Page 19                                                               
  Link Results at 0:00 Hrs: (continued)
  ----------------------------------------------------------------------
  Link                  Flow  VelocityUnit Headloss    Status
  ID                     LPS       m/s      m/km
  ----------------------------------------------------------------------
  244                   0.02      0.00      0.00      Open
  245                   0.02      0.00      0.00      Open
  246                   0.02      0.00      0.00      Open
  247                   0.02      0.00      0.00      Open
  248                   0.02      0.00      0.00      Open
  249                   0.02      0.00      0.00      Open
  250                   0.02      0.00      0.00      Open
  251                   0.02      0.00      0.00      Open
  255                   0.00      0.00      0.00      Open
  256                   0.00      0.00      0.00      Open
  257                   0.00      0.00      0.00      Open
  258                   0.00      0.00      0.00      Open
  260                   0.00      0.00      0.00      Open
  261                   0.00      0.00      0.00      Open
  262                   0.00      0.00      0.00      Open
  263                   0.00      0.00      0.00      Open
  264                   0.00      0.00      0.00      Open
  265                   0.00      0.00      0.00      Open
  267                   0.00      0.00      0.00      Open
  269                   0.00      0.00      0.00      Open
  270                   0.00      0.00      0.00      Open
  271                   0.00      0.00      0.00      Open
  272                   0.00      0.00      0.00      Open
  273                1305.00      2.24    482.80      Open
  274                1305.00      2.24    482.80      Open
  275                1305.00      2.24     75.87      Open
  276                1305.00      2.24     75.87      Open
  279                   0.00      0.00      0.00      Open
  280                   0.00      0.00      0.00      Open
  12                    0.00      0.00      0.00      Open
  16                 2610.00      1.82     10.54      Open
  50                 2610.00      1.82      1.42      Open
  76                 1305.00      2.24  11903.27      Open
  82                 1305.00      2.24  11903.27      Open
  83                    0.00      0.00      0.00      Open
  91                    0.00      0.00      0.00      Open
  97                    0.00      0.00      0.00      Open
  104                   0.02      0.00      0.00      Open
  111                   0.00      0.00      0.00      Open
  112                   0.02      0.00      0.00      Open
  118                   0.02      0.00      0.00      Open
  124                   0.00      0.00      0.00      Open
  131                   0.02      0.00      0.00      Open
  138                   0.00      0.00      0.00      Open
  77                 2168.35      1.47     11.24      Open
  5                   883.30      2.63     89.30      Open
  9                   294.34      0.88      0.60      Open


  Page 20                                                               
  Link Results at 0:00 Hrs: (continued)
  ----------------------------------------------------------------------
  Link                  Flow  VelocityUnit Headloss    Status
  ID                     LPS       m/s      m/km
  ----------------------------------------------------------------------
  17                  294.34      0.88      0.60      Open
  35                  294.34      0.88      3.52      Open
  36                  294.62      0.88      3.55      Open
  37                  294.34      0.88      3.52      Open
  39                  294.34      0.88      0.83      Open
  61                 -294.34      0.88      0.83      Open
  62                  883.30      1.35      3.76      Open
  63                  883.30      1.35      8.22      Open
  65                  883.30      1.35      1.26      Open
  34                    0.00      0.00      0.00      Open
  88                 2168.35      1.47     25.87      Open
  95                 2168.35      1.47     25.87      Open
  96                 2168.35      1.47     11.24      Open
  20                 2610.00      1.82     61.85      Open
  98                 2610.00      1.82      1.31      Open
  100                2610.00      1.82    152.55      Open
  102                2610.00      1.82     22.50      Open
  109                   0.00      0.00      0.00      Open
  116                 883.30      1.35     27.88      Open
  122                 883.30      1.35     11.43      Open
  125                 883.30      1.35      6.58      Open
  21                    0.00      0.00      0.00      Open
  PUMP_01             294.34      0.00    -25.70      Open Pump
  PUMP_02             294.62      0.00    -25.70      Open Pump
  PUMP_03             294.34      0.00    -25.70      Open Pump
  RIKO_01            2610.00      3.32     10.15    Active Valve
  RIKO_02            2610.00      3.32     10.24    Active Valve
  BF_GFN_01             0.00      0.00      0.00    Active Valve
  BF_FN_02              0.00      0.00      0.00    Closed Valve
  BF_FN_01              0.00      0.00      0.00    Closed Valve
  BF_GFN_02             0.00      0.00      0.00    Active Valve
  BF_FN_04              0.00      0.00      0.00    Closed Valve
  BF_FN_03              0.00      0.00      0.00    Closed Valve
  BF_GFN_03             0.00      0.00      0.00    Active Valve
  BF_FN_06              0.00      0.00      0.00    Closed Valve
  BF_FN_05              0.00      0.00      0.00    Closed Valve
  BF_FN_08              0.00      0.00      0.00    Closed Valve
  BF_FN_07           2609.99      2.31      0.08    Active Valve
  BF_GFN_04          2609.99      1.82      0.05    Active Valve
  BF_GFV_01             0.00      0.00      0.00    Active Valve
  BF_FV_01              0.00      0.00      0.00    Closed Valve
  BF_FV_02              0.00      0.00      0.00    Closed Valve
  BF_FV_03              0.00      0.00      0.00    Closed Valve
  BF_FV_04              0.00      0.00      0.00    Closed Valve
  BF_GFV_02             0.00      0.00      0.00    Active Valve
  BF_FV_05              0.00      0.00      0.00    Closed Valve
  BF_FV_06              0.00      0.00      0.00    Closed Valve


  Page 21                                                               
  Link Results at 0:00 Hrs: (continued)
  ----------------------------------------------------------------------
  Link                  Flow  VelocityUnit Headloss    Status
  ID                     LPS       m/s      m/km
  ----------------------------------------------------------------------
  BF_FV_07              0.00      0.00      0.00    Closed Valve
  BF_FV_08              0.00      0.00      0.00    Closed Valve
  BF_GFV_03             0.00      0.00      0.00    Active Valve
  BF_FV_09              0.00      0.00      0.00    Closed Valve
  BF_FV_10              0.00      0.00      0.00    Closed Valve
  BF_FV_11              0.00      0.00      0.00    Closed Valve
  BF_FV_12              0.00      0.00      0.00    Closed Valve
  BF_GFV_04          2610.00      2.31      0.08    Active Valve
  BF_FV_13              0.00      0.00      0.00    Closed Valve
  BF_FV_14              0.00      0.00      0.00    Closed Valve
  BF_FV_15              0.00      0.00      0.00    Closed Valve
  BF_FV_16           2610.00      2.31      0.08    Active Valve
  BF_CONECT             0.00      0.00      0.00    Closed Valve
  
  Node Results at 0:01 Hrs:
  ----------------------------------------------------------------------
  Node                Demand      Head  Pressure   Quality
  ID                     LPS         m         m          
  ----------------------------------------------------------------------
  ND-01-003             0.00   2814.70      7.63      0.00
  ND-01-004             0.00   2814.57     17.82      0.00
  ND-01-005             0.00   2814.50     17.75      0.00
  ND-01-006             0.00   2814.49     17.74      0.00
  ND-01-007             0.00   2814.42     17.60      0.00
  ND-01-008             0.00   2804.45      7.63      0.00
  ND-01-009             0.00   2804.38      7.45      0.00
  ND-01-010             0.00   2804.30      7.02      0.00
  ND-01-011             0.00   2804.23      5.32      0.00
  ND-01-012             0.00   2804.23      5.35      0.00
  ND-01-013             0.00   2803.91      5.05      0.00
  ND-01-014             0.00   2803.90      5.01      0.00
  ND-01-015             0.00   2803.80      4.95      0.00
  ND-01-016             0.00   2803.72      7.12      0.00
  ND-01-017             0.00   2803.63      6.96      0.00
  ND-01-018             0.00   2803.55      4.66      0.00
  ND-01-019             0.00   2803.53      4.65      0.00
  ND-01-020             0.00   2803.35      4.50      0.00
  ND-01-021             0.00   2803.22      4.34      0.00
  ND-02-006             0.00   2814.35     17.74      0.00
  ND-02-007             0.00   2814.14     17.53      0.00
  ND-02-008             0.00   2813.87     17.26      0.00
  ND-02-009             0.00   2813.73     16.98      0.00
  ND-02-010             0.00   2803.67      6.92      0.00
  ND-02-011             0.00   2803.60      6.85      0.00
  ND-02-012             0.00   2803.53      5.93      0.00
  ND-02-013             0.00   2803.45      4.57      0.00
  ND-02-015             0.00   2803.14      4.26      0.00


  Page 22                                                               
  Node Results at 0:01 Hrs: (continued)
  ----------------------------------------------------------------------
  Node                Demand      Head  Pressure   Quality
  ID                     LPS         m         m          
  ----------------------------------------------------------------------
  ND-02-016             0.00   2803.11      4.24      0.00
  ND-02-017             0.00   2803.04      4.16      0.00
  ND-02-018             0.00   2802.96      6.31      0.00
  ND-02-019             0.00   2802.88      6.22      0.00
  ND-02-020             0.00   2802.80      3.93      0.00
  ND-02-021             0.00   2802.78      3.91      0.00
  ND-02-022             0.00   2802.78      3.90      0.00
  ND-02-023             0.00   2802.61      3.73      0.00
  ND-02-024             0.00   2802.48      3.60      0.00
  1                     0.00   2813.76     17.01      0.00
  2                     0.00   2803.45      4.57      0.00
  3                     0.00   2803.45      4.57      0.00
  4                     0.00   2803.45      4.57      0.00
  5                     0.00   2803.45      4.57      0.00
  6                     0.00   2803.45      4.57      0.00
  7                     0.00   2803.45      4.57      0.00
  8                     0.00   2800.47      2.39      0.00
  9                     0.00   2800.47      3.50      0.00
  11                    0.00   2803.45      4.57      0.00
  12                    0.00   2803.45      4.57      0.00
  13                    0.00   2803.45      4.57      0.00
  15                    0.00   2800.47      2.39      0.00
  16                    0.00   2800.47      3.50      0.00
  18                    0.00   2803.14      4.26      0.00
  19                    0.00   2803.14      4.26      0.00
  20                    0.00   2803.14      4.26      0.00
  21                    0.00   2803.14      4.26      0.00
  22                    0.00   2803.14      4.26      0.00
  23                    0.00   2800.47      2.39      0.00
  24                    0.00   2800.47      3.50      0.00
  26                    0.00   2803.14      4.26      0.00
  27                    0.00   2803.14      4.26      0.00
  28                    0.00   2803.14      4.26      0.00
  29                    0.00   2800.47      2.39      0.00
  30                    0.00   2800.47      3.50      0.00
  32                    0.00   2802.78      4.02      0.00
  33                    0.00   2802.78      3.90      0.00
  34                    0.00   2802.78      3.90      0.00
  35                    0.00   2802.78      3.90      0.00
  36                    0.00   2802.78      3.90      0.00
  37                    0.00   2800.47      2.39      0.00
  38                    0.00   2800.47      3.50      0.00
  39                    0.00   2802.78      3.90      0.00
  40                    0.00   2802.78      3.90      0.00
  41                    0.00   2802.78      3.90      0.00
  42                    0.00   2800.47      2.39      0.00
  43                    0.00   2800.47      3.50      0.00


  Page 23                                                               
  Node Results at 0:01 Hrs: (continued)
  ----------------------------------------------------------------------
  Node                Demand      Head  Pressure   Quality
  ID                     LPS         m         m          
  ----------------------------------------------------------------------
  47                    0.00   2802.43      3.55      0.00
  48                    0.00   2802.41      3.53      0.00
  49                    0.00   2802.39      3.51      0.00
  50                    0.00   2802.39      3.51      0.00
  51                    0.00   2800.47      2.39      0.00
  52                    0.00   2802.22      3.34      0.00
  53                    0.00   2802.18      3.30      0.00
  54                    0.00   2802.05      3.17      0.00
  55                    0.00   2801.97      3.89      0.00
  56                    0.00   2801.61      4.64      0.00
  59                    0.00   2800.47      3.50      0.00
  61                    0.00   2803.90      5.03      0.00
  62                    0.00   2804.23      5.35      0.00
  63                    0.00   2803.52      4.66      0.00
  64                    0.00   2803.52      4.65      0.00
  65                    0.00   2803.08      4.23      0.00
  66                    0.00   2804.23      5.35      0.00
  67                    0.00   2804.23      5.35      0.00
  68                    0.00   2804.23      5.35      0.00
  69                    0.00   2804.23      5.35      0.00
  70                    0.00   2800.47      2.39      0.00
  71                    0.00   2800.47      3.39      0.00
  72                    0.00   2804.23      5.35      0.00
  73                    0.00   2804.23      5.35      0.00
  74                    0.00   2804.23      5.35      0.00
  75                    0.00   2804.23      5.35      0.00
  76                    0.00   2800.47      2.39      0.00
  78                    0.00   2800.47      3.39      0.00
  79                    0.00   2804.23      5.35      0.00
  80                    0.00   2804.23      5.35      0.00
  81                    0.00   2804.23      5.35      0.00
  82                    0.00   2804.23      5.35      0.00
  83                    0.00   2800.47      2.39      0.00
  84                    0.00   2800.47      3.39      0.00
  86                    0.00   2804.23      5.35      0.00
  87                    0.00   2804.23      5.35      0.00
  88                    0.00   2804.23      5.35      0.00
  89                    0.00   2800.47      2.39      0.00
  90                    0.00   2800.47      3.39      0.00
  92                    0.00   2803.90      5.03      0.00
  93                    0.00   2803.90      5.03      0.00
  94                    0.00   2803.90      5.03      0.00
  95                    0.00   2803.90      5.03      0.00
  96                    0.00   2800.47      2.39      0.00
  97                    0.00   2800.47      3.39      0.00
  99                    0.00   2803.90      5.03      0.00
  100                   0.00   2803.90      5.03      0.00


  Page 24                                                               
  Node Results at 0:01 Hrs: (continued)
  ----------------------------------------------------------------------
  Node                Demand      Head  Pressure   Quality
  ID                     LPS         m         m          
  ----------------------------------------------------------------------
  101                   0.00   2803.90      5.03      0.00
  102                   0.00   2803.90      5.03      0.00
  103                   0.00   2800.47      2.39      0.00
  104                   0.00   2800.47      3.39      0.00
  106                   0.00   2803.90      5.03      0.00
  107                   0.00   2803.90      5.03      0.00
  108                   0.00   2803.90      5.03      0.00
  109                   0.00   2803.90      5.03      0.00
  110                   0.00   2800.47      2.39      0.00
  111                   0.00   2800.47      3.39      0.00
  113                   0.00   2803.90      5.03      0.00
  114                   0.00   2803.90      5.03      0.00
  115                   0.00   2803.90      5.03      0.00
  116                   0.00   2800.47      2.39      0.00
  117                   0.00   2800.47      3.39      0.00
  119                   0.00   2803.52      4.65      0.00
  120                   0.00   2803.52      4.64      0.00
  121                   0.00   2803.52      4.65      0.00
  122                   0.00   2803.52      4.65      0.00
  123                   0.00   2800.47      2.39      0.00
  124                   0.00   2800.47      3.39      0.00
  126                   0.00   2803.52      4.65      0.00
  127                   0.00   2803.52      4.65      0.00
  128                   0.00   2803.52      4.65      0.00
  129                   0.00   2803.52      4.65      0.00
  130                   0.00   2800.47      3.39      0.00
  131                   0.00   2800.47      3.39      0.00
  133                   0.00   2803.52      4.65      0.00
  134                   0.00   2803.52      4.65      0.00
  135                   0.00   2803.52      4.65      0.00
  136                   0.00   2803.52      4.65      0.00
  137                   0.00   2800.47      3.39      0.00
  138                   0.00   2800.47      3.39      0.00
  140                   0.00   2803.52      4.65      0.00
  141                   0.00   2803.52      4.65      0.00
  142                   0.00   2803.52      4.65      0.00
  143                   0.00   2800.47      3.39      0.00
  144                   0.00   2800.47      3.39      0.00
  146                   0.00   2803.00      4.15      0.00
  147                   0.00   2802.99      4.13      0.00
  148                   0.00   2802.98      4.10      0.00
  149                   0.00   2802.98      4.10      0.00
  150                   0.00   2800.47      3.39      0.00
  151                   0.00   2800.47      3.39      0.00
  153                   0.00   2802.97      4.10      0.00
  154                   0.00   2802.95      4.07      0.00
  155                   0.00   2802.95      4.07      0.00


  Page 25                                                               
  Node Results at 0:01 Hrs: (continued)
  ----------------------------------------------------------------------
  Node                Demand      Head  Pressure   Quality
  ID                     LPS         m         m          
  ----------------------------------------------------------------------
  156                   0.00   2802.95      4.07      0.00
  157                   0.00   2800.47      3.39      0.00
  158                   0.00   2800.47      3.39      0.00
  160                   0.00   2802.94      4.07      0.00
  161                   0.00   2802.90      4.03      0.00
  162                   0.00   2802.90      4.02      0.00
  163                   0.00   2802.90      4.02      0.00
  164                   0.00   2800.47      3.39      0.00
  165                   0.00   2800.47      3.39      0.00
  167                   0.00   2802.90      4.02      0.00
  168                   0.00   2802.86      3.98      0.00
  169                   0.00   2802.73      3.85      0.00
  170                   0.00   2802.65      5.57      0.00
  171                   0.00   2802.63      5.56      0.00
  173                   0.00   2800.47      3.39      0.00
  174                   0.00   2800.47      3.39      0.00
  175                   0.00   2800.47      3.39      0.00
[...]
  PL-02-006-007      2610.00      2.31     58.95      Open
  PL-02-007-008      2610.00      2.31     30.38      Open
  PL-02-010-011      2610.00      1.82     29.93      Open
  PL-02-011-012      2610.00      1.82     23.87      Open
  PL-02-012-013      2610.00      1.82     25.24      Open
  PL-02-015-016      2610.00      1.82      3.15      Open
  PL-02-016-017      2610.00      1.82     25.84      Open
  PL-02-017-018      2610.00      1.82     15.92      Open
  PL-02-018-019      2610.00      1.82      9.65      Open
  PL-02-019-020      2610.00      1.82     16.12      Open
  PL-02-020-021      2610.00      1.82      4.14      Open
  PL-02-021-022      2610.00      1.82      1.41      Open
  PL-02-022-023      2609.99      1.82     58.50      Open
  PL-02-023-024      2609.99      1.82     43.36      Open
  1                  2610.00      2.31     20.77      Open
  2                  2610.00      2.31     93.02      Open
  3                  2610.00      1.82      1.47      Open
  4                     0.00      0.00      0.00      Open
  6                     0.00      0.00      0.00      Open
  7                     0.00      0.00      0.00      Open
  8                     0.00      0.00      0.00      Open
  10                    0.00      0.00      0.00      Open
  11                    0.00      0.00      0.00      Open
  13                    0.00      0.00      0.00      Open
  14                    0.00      0.00      0.00      Open
  15                    0.00      0.00      0.00      Open
  18                    0.00      0.00      0.00      Open
  19                    0.00      0.00      0.00      Open
  22                    0.00      0.00      0.00      Open
  23                    0.00      0.00      0.00      Open
  24                    0.00      0.00      0.00      Open
  25                    0.00      0.00      0.00      Open


  Page 279                                                              
  Link Results at 0:20 Hrs: (continued)
  ----------------------------------------------------------------------
  Link                  Flow  VelocityUnit Headloss    Status
  ID                     LPS       m/s      m/km
  ----------------------------------------------------------------------
  27                    0.00      0.00      0.00      Open
  28                    0.00      0.00      0.00      Open
  30                    0.00      0.00      0.00      Open
  31                    0.00      0.00      0.00      Open
  32                    0.00      0.00      0.00      Open
  33                    0.00      0.00      0.00      Open
  38                    0.00      0.00      0.00      Open
  40                    0.00      0.00      0.00      Open
  41                    0.00      0.00      0.00      Open
  42                    0.00      0.00      0.00      Open
  43                    0.00      0.00      0.00      Open
  44                    0.00      0.00      0.00      Open
  45                    0.00      0.00      0.00      Open
  46                    0.00      0.00      0.00      Open
  47                    0.00      0.00      0.00      Open
  48                    0.00      0.00      0.00      Open
  49                    0.00      0.00      0.00      Open
  51                 2609.99      1.82     10.54      Open
  52                 2609.99      1.82      3.26      Open
  53                    0.00      0.00      0.00      Open
  54                    0.00      0.00      0.00      Open
  55                    0.00      0.00      0.00      Open
  56                 2609.99      1.82     72.99      Open
  57                 2609.99      1.82      2.11      Open
  58                 2609.99      1.82     61.37      Open
  59                 2609.99      1.98    326.08      Open
  60                 2609.99      1.98    601.77      Open
  64                 2610.00      1.82     81.11      Open
  66                    0.00      0.00      0.00      Open
  67                    0.00      0.00      0.00      Open
  68                 2609.99      1.82      1.41      Open
  69                 2609.99      1.82     21.78      Open
  70                    0.00      0.00      0.00      Open
  71                 2609.99      1.82     40.81      Open
  72                    0.00      0.00      0.00      Open
  73                    0.00      0.00      0.00      Open
  74                    0.00      0.00      0.00      Open
  75                    0.00      0.00      0.00      Open
  78                    0.00      0.00      0.00      Open
  79                    0.00      0.00      0.00      Open
  80                    0.00      0.00      0.00      Open
  84                    0.00      0.00      0.00      Open
  85                    0.00      0.00      0.00      Open
  86                    0.00      0.00      0.00      Open
  87                    0.00      0.00      0.00      Open
  89                    0.00      0.00      0.00      Open
  90                    0.00      0.00      0.00      Open


  Page 280                                                              
  Link Results at 0:20 Hrs: (continued)
  ----------------------------------------------------------------------
  Link                  Flow  VelocityUnit Headloss    Status
  ID                     LPS       m/s      m/km
  ----------------------------------------------------------------------
  92                    0.00      0.00      0.00      Open
  93                    0.00      0.00      0.00      Open
  94                    0.00      0.00      0.00      Open
  99                    0.00      0.00      0.00      Open
  101                   0.00      0.00      0.00      Open
  103                   0.00      0.00      0.00      Open
  105                   0.00      0.00      0.00      Open
  106                   0.00      0.00      0.00      Open
  107                   0.00      0.00      0.00      Open
  108                   0.00      0.00      0.00      Open
  110                   0.00      0.00      0.00      Open
  113                   0.00      0.00      0.00      Open
  114                   0.00      0.00      0.00      Open
  115                   0.00      0.00      0.00      Open
  117                   0.00      0.00      0.00      Open
  119                   0.00      0.00      0.00      Open
  120                   0.00      0.00      0.00      Open
  121                   0.00      0.00      0.00      Open
  123                   0.00      0.00      0.00      Open
  126                   0.00      0.00      0.00      Open
  127                   0.00      0.00      0.00      Open
  128                   0.00      0.00      0.00      Open
  130                   0.00      0.00      0.00      Open
  132                   0.00      0.00      0.00      Open
  133                   0.00      0.00      0.00      Open
  134                   0.00      0.00      0.00      Open
  135                   0.00      0.00      0.00      Open
  137                   0.00      0.00      0.00      Open
  139                   0.00      0.00      0.00      Open
  141                   0.00      0.00      0.00      Open
  142                   0.00      0.00      0.00      Open
  144                   0.00      0.00      0.00      Open
  147                   0.00      0.00      0.00      Open
  148                   0.00      0.00      0.00      Open
  150                   0.00      0.00      0.00      Open
  154                2609.99      1.82      1.40      Open
  155                   0.00      0.00      0.00      Open
  157                   0.00      0.00      0.00      Open
  159                2609.99      1.82      1.42      Open
  160                2609.99      1.82      1.40      Open
  161                2609.99      1.82      1.35      Open
  162                   0.00      0.00      0.00      Open
  164                   0.00      0.00      0.00      Open
  166                2609.99      1.82      1.42      Open
  167                2609.99      1.82      2.14      Open
  168                2609.99      1.82      1.35      Open
  169                   0.00      0.00      0.00      Open


  Page 281                                                              
  Link Results at 0:20 Hrs: (continued)
  ----------------------------------------------------------------------
  Link                  Flow  VelocityUnit Headloss    Status
  ID                     LPS       m/s      m/km
  ----------------------------------------------------------------------
  171                   0.00      0.00      0.00      Open
  174                2609.99      1.82      2.11      Open
  175                2609.99      1.82     61.37      Open
  177                2609.99      4.47     13.39      Open
  179                   0.00      0.00      0.00      Open
  180                   0.00      0.00      0.00      Open
  182                   0.00      0.00      0.00      Open
  183                   0.00      0.00      0.00      Open
  184                   0.00      0.00      0.00      Open
  185                   0.00      0.00      0.00      Open
  186                   0.00      0.00      0.00      Open
  187                   0.00      0.00      0.00      Open
  189                   0.00      0.00      0.00      Open
  190                   0.00      0.00      0.00      Open
  191                   0.00      0.00      0.00      Open
  192                   0.00      0.00      0.00      Open
  193                   0.00      0.00      0.00      Open
  194                   0.00      0.00      0.00      Open
  195                   0.00      0.00      0.00      Open
  196                   0.00      0.00      0.00      Open
  197                   0.00      0.00      0.00      Open
  198                   0.00      0.00      0.00      Open
  199                   0.00      0.00      0.00      Open
  200                   0.00      0.00      0.00      Open
  201                   0.00      0.00      0.00      Open
  202                   0.00      0.00      0.00      Open
  203                   0.00      0.00      0.00      Open
  204                   0.00      0.00      0.00      Open
  205                   0.00      0.00      0.00      Open
  206                   0.00      0.00      0.00      Open
  207                   0.00      0.00      0.00      Open
  208                   0.00      0.00      0.00      Open
  209                   0.00      0.00      0.00      Open
  210                   0.00      0.00      0.00      Open
  211                   0.00      0.00      0.00      Open
  212                   0.00      0.00      0.00      Open
  213                   0.00      0.00      0.00      Open
  214                   0.00      0.00      0.00      Open
  216                   0.00      0.00      0.00      Open
  217                   0.00      0.00      0.00      Open
  218                   0.00      0.00      0.00      Open
  219                   0.00      0.00      0.00      Open
  221                   0.00      0.00      0.00      Open
  222                   0.00      0.00      0.00      Open
  223                   0.00      0.00      0.00      Open
  224                   0.00      0.00      0.00      Open
  225                   0.00      0.00      0.00      Open


  Page 282                                                              
  Link Results at 0:20 Hrs: (continued)
  ----------------------------------------------------------------------
  Link                  Flow  VelocityUnit Headloss    Status
  ID                     LPS       m/s      m/km
  ----------------------------------------------------------------------
  226                   0.00      0.00      0.00      Open
  227                   0.00      0.00      0.00      Open
  228                   0.00      0.00      0.00      Open
  229                   0.00      0.00      0.00      Open
  230                   0.00      0.00      0.00      Open
  231                   0.00      0.00      0.00      Open
  232                   0.00      0.00      0.00      Open
  234                   0.00      0.00      0.00      Open
  235                   0.00      0.00      0.00      Open
  236                   0.00      0.00      0.00      Open
  237                   0.00      0.00      0.00      Open
  238                   0.00      0.00      0.00      Open
  239                   0.00      0.00      0.00      Open
  240                   0.00      0.00      0.00      Open
  241                   0.00      0.00      0.00      Open
  242                   0.00      0.00      0.00      Open
  243                   0.00      0.00      0.00      Open
  244                   0.00      0.00      0.00      Open
  245                   0.00      0.00      0.00      Open
  246                   0.00      0.00      0.00      Open
  247                   0.00      0.00      0.00      Open
  248                   0.00      0.00      0.00      Open
  249                   0.00      0.00      0.00      Open
  250                   0.00      0.00      0.00      Open
  251                   0.00      0.00      0.00      Open
  255                   0.00      0.00      0.00      Open
  256                   0.00      0.00      0.00      Open
  257                   0.00      0.00      0.00      Open
  258                   0.00      0.00      0.00      Open
  260                   0.00      0.00      0.00      Open
  261                   0.00      0.00      0.00      Open
  262                   0.00      0.00      0.00      Open
  263                   0.00      0.00      0.00      Open
  264                   0.00      0.00      0.00      Open
  265                   0.00      0.00      0.00      Open
  267                   0.00      0.00      0.00      Open
  269                   0.00      0.00      0.00      Open
  270                   0.00      0.00      0.00      Open
  271                   0.00      0.00      0.00      Open
  272                   0.00      0.00      0.00      Open
  273                1305.00      2.24    482.80      Open
  274                1305.00      2.24    482.80      Open
  275                1305.00      2.24     75.87      Open
  276                1305.00      2.24     75.87      Open
  279                   0.00      0.00      0.00      Open
  280                   0.00      0.00      0.00      Open
  12                    0.00      0.00      0.00      Open


  Page 283                                                              
  Link Results at 0:20 Hrs: (continued)
  ----------------------------------------------------------------------
  Link                  Flow  VelocityUnit Headloss    Status
  ID                     LPS       m/s      m/km
  ----------------------------------------------------------------------
  16                 2609.99      1.82     10.54      Open
  50                 2609.99      1.82      1.42      Open
  76                 1305.00      2.24  11903.27      Open
  82                 1305.00      2.24  11903.27      Open
  83                    0.00      0.00      0.00      Open
  91                    0.00      0.00      0.00      Open
  97                    0.00      0.00      0.00      Open
  104                   0.00      0.00      0.00      Open
  111                   0.00      0.00      0.00      Open
  112                   0.00      0.00      0.00      Open
  118                   0.00      0.00      0.00      Open
  124                   0.00      0.00      0.00      Open
  131                   0.00      0.00      0.00      Open
  138                   0.00      0.00      0.00      Open
  77                 1994.04      1.35      9.46      Open
  5                  1231.91      3.67    173.38      Open
  9                   410.47      1.22      1.49      Open
  17                  410.47      1.22      1.49      Open
  35                  410.47      1.22      6.82      Open
  36                  410.98      1.22      6.82      Open
  37                  410.47      1.22      6.82      Open
  39                  410.47      1.22      1.55      Open
  61                 -410.47      1.22      1.55      Open
  62                 1231.91      1.88      7.26      Open
  63                 1231.91      1.88     15.91      Open
  65                 1231.91      1.88      2.38      Open
  34                    0.00      0.00      0.00      Open
  88                 1994.04      1.35     21.92      Open
  95                 1994.04      1.35     21.92      Open
  96                 1994.04      1.35      9.46      Open
  20                 2610.00      1.82     61.85      Open
  98                 2610.00      1.82      1.31      Open
  100                2610.00      1.82    152.55      Open
  102                2610.00      1.82     22.50      Open
  109                   0.00      0.00      0.00      Open
  116                1231.91      1.88     54.21      Open
  122                1231.91      1.88     22.13      Open
  125                1231.91      1.88     12.71      Open
  21                    0.00      0.00      0.00      Open
  PUMP_01             410.47      0.00    -23.61      Open Pump
  PUMP_02             410.98      0.00    -23.60      Open Pump
  PUMP_03             410.47      0.00    -23.61      Open Pump
  RIKO_01            2610.00      3.32      6.68    Active Valve
  RIKO_02            2610.00      3.32      6.82    Active Valve
  BF_GFN_01             0.00      0.00      0.00    Active Valve
  BF_FN_02              0.00      0.00      0.00    Closed Valve
  BF_FN_01              0.00      0.00      0.00    Closed Valve


  Page 284                                                              
  Link Results at 0:20 Hrs: (continued)
  ----------------------------------------------------------------------
  Link                  Flow  VelocityUnit Headloss    Status
  ID                     LPS       m/s      m/km
  ----------------------------------------------------------------------
  BF_GFN_02             0.00      0.00      0.00    Active Valve
  BF_FN_04              0.00      0.00      0.00    Closed Valve
  BF_FN_03              0.00      0.00      0.00    Closed Valve
  BF_GFN_03             0.00      0.00      0.00    Active Valve
  BF_FN_06              0.00      0.00      0.00    Closed Valve
  BF_FN_05              0.00      0.00      0.00    Closed Valve
  BF_FN_08              0.00      0.00      0.00    Closed Valve
  BF_FN_07           2609.99      2.31      0.08    Active Valve
  BF_GFN_04          2609.99      1.82      0.05    Active Valve
  BF_GFV_01             0.00      0.00      0.00    Active Valve
  BF_FV_01              0.00      0.00      0.00    Closed Valve
  BF_FV_02              0.00      0.00      0.00    Closed Valve
  BF_FV_03              0.00      0.00      0.00    Closed Valve
  BF_FV_04              0.00      0.00      0.00    Closed Valve
  BF_GFV_02             0.00      0.00      0.00    Active Valve
  BF_FV_05              0.00      0.00      0.00    Closed Valve
  BF_FV_06              0.00      0.00      0.00    Closed Valve
  BF_FV_07              0.00      0.00      0.00    Closed Valve
  BF_FV_08              0.00      0.00      0.00    Closed Valve
  BF_GFV_03             0.00      0.00      0.00    Active Valve
  BF_FV_09              0.00      0.00      0.00    Closed Valve
  BF_FV_10              0.00      0.00      0.00    Closed Valve
  BF_FV_11              0.00      0.00      0.00    Closed Valve
  BF_FV_12              0.00      0.00      0.00    Closed Valve
  BF_GFV_04          2609.99      2.31      0.08    Active Valve
  BF_FV_13              0.00      0.00      0.00    Closed Valve
  BF_FV_14              0.00      0.00      0.00    Closed Valve
  BF_FV_15              0.00      0.00      0.00    Closed Valve
  BF_FV_16           2609.99      2.31      0.08    Active Valve
  BF_CONECT             0.00      0.00      0.00    Closed Valve
  
