  Page 1                                    Sun Jun 28 04:59:11 2020

  ******************************************************************
  *                           E P A N E T                          *
  *                   Hydraulic and Water Quality                  *
  *                   Analysis for Pipe Networks                   *
  *                         Version 2.1                            *
  ******************************************************************
  
  Analysis begun Sun Jun 28 04:59:11 2020

   
  Node Results at 0:00:00 hrs:
  ----------------------------------------------
                     Demand      Head  Pressure
  Node                  L/s         m         m
  ----------------------------------------------
  JT_0001              0.00    100.00      5.00
  JT_0002              0.00    100.00      5.00
  JT_0003              0.00     99.99     99.99
  JT_0004              0.00     99.98     99.98
  JT_0006              0.00     99.98     99.98
  JT_0007              0.00      5.00      5.00
  JT_0009              0.00      5.00      5.00
  JT_0005              0.00     99.98     99.98
  JT_0008              0.00      5.00      5.00
  RES_001             -4.00    100.00     -0.00  Reservoir
  RES_002              4.00      5.00      0.00  Reservoir
   
   
  Link Results at 0:00:00 hrs:
  ----------------------------------------------
                       Flow  Velocity  Headloss
  Link                  L/s       m/s    /1000m
  ----------------------------------------------
  PL_0001              4.00      0.08      0.37
  PL_0002              4.00      0.08      0.04
  PL_0003              4.00      0.08      0.04
  Reducer              4.00      0.08      0.04
  Diffuser             4.00      0.08      0.03
  PL_0004              4.00      0.08      0.20
  RIKO                 4.00      0.08     94.98  FCV
  GV_0001              4.00      0.08      0.00  TCV
  GV_0002              4.00      0.08      0.00  TCV
  GV_0003              4.00      0.08      0.00  TCV
   
   
  Node Results at 1:00:00 hrs:
  ----------------------------------------------
                     Demand      Head  Pressure
  Node                  L/s         m         m
  ----------------------------------------------
  JT_0001              0.00    100.00      5.00
  JT_0002              0.00    100.00      5.00
  JT_0003              0.00     99.97     99.97
  JT_0004              0.00     99.95     99.95
  JT_0006              0.00     99.95     99.95
  JT_0007              0.00      5.00      5.00
  JT_0009              0.00      5.00      5.00
  JT_0005              0.00     99.95     99.95
  JT_0008              0.00      5.00      5.00
  RES_001             -7.00    100.00     -0.00  Reservoir
  RES_002              7.00      5.00      0.00  Reservoir
   
   
  Link Results at 1:00:00 hrs:
  ----------------------------------------------
                       Flow  Velocity  Headloss
  Link                  L/s       m/s    /1000m
  ----------------------------------------------
  PL_0001              7.00      0.14      1.13
  PL_0002              7.00      0.14      0.10
  PL_0003              7.00      0.14      0.10
  Reducer              7.00      0.14      0.09
  Diffuser             7.00      0.14      0.09
  PL_0004              7.00      0.14      0.61
  RIKO                 7.00      0.14     94.94  FCV
  GV_0001              7.00      0.14      0.00  TCV
  GV_0002              7.00      0.14      0.00  TCV
  GV_0003              7.00      0.14      0.00  TCV
   
   
  Node Results at 2:00:00 hrs:
  ----------------------------------------------
                     Demand      Head  Pressure
  Node                  L/s         m         m
  ----------------------------------------------
  JT_0001              0.00    100.00      5.00
  JT_0002              0.00    100.00      5.00
  JT_0003              0.00     99.94     99.94
  JT_0004              0.00     99.88     99.88
  JT_0006              0.00     99.88     99.88
  JT_0007              0.00      5.01      5.01
  JT_0009              0.00      5.01      5.01
  JT_0005              0.00     99.88     99.88
  JT_0008              0.00      5.01      5.01
  RES_001            -11.00    100.00     -0.00  Reservoir
  RES_002             11.00      5.00      0.00  Reservoir
   
   
  Link Results at 2:00:00 hrs:
  ----------------------------------------------
                       Flow  Velocity  Headloss
  Link                  L/s       m/s    /1000m
  ----------------------------------------------
  PL_0001             11.00      0.22      2.77
  PL_0002             11.00      0.22      0.23
  PL_0003             11.00      0.22      0.23
  Reducer             11.00      0.22      0.21
  Diffuser            11.00      0.22      0.21
  PL_0004             11.00      0.22      1.49
  RIKO                11.00      0.22     94.87  FCV
  GV_0001             11.00      0.22      0.00  TCV
  GV_0002             11.00      0.22      0.00  TCV
  GV_0003             11.00      0.22      0.00  TCV
   
   
  Node Results at 3:00:00 hrs:
  ----------------------------------------------
                     Demand      Head  Pressure
  Node                  L/s         m         m
  ----------------------------------------------
  JT_0001              0.00     99.99      4.99
  JT_0002              0.00     99.99      4.99
  JT_0003              0.00     99.89     99.89
  JT_0004              0.00     99.79     99.79
  JT_0006              0.00     99.79     99.79
  JT_0007              0.00      5.02      5.02
  JT_0009              0.00      5.01      5.01
  JT_0005              0.00     99.79     99.79
  JT_0008              0.00      5.01      5.01
  RES_001            -15.00    100.00     -0.00  Reservoir
  RES_002             15.00      5.00      0.00  Reservoir
   
   
  Link Results at 3:00:00 hrs:
  ----------------------------------------------
                       Flow  Velocity  Headloss
  Link                  L/s       m/s    /1000m
  ----------------------------------------------
  PL_0001             15.00      0.31      5.13
  PL_0002             15.00      0.31      0.41
  PL_0003             15.00      0.31      0.41
  Reducer             15.00      0.31      0.36
  Diffuser            15.00      0.31      0.37
  PL_0004             15.00      0.31      2.75
  RIKO                15.00      0.31     94.77  FCV
  GV_0001             15.00      0.31      0.00  TCV
  GV_0002             15.00      0.31      0.00  TCV
  GV_0003             15.00      0.31      0.00  TCV
   
   
  Node Results at 4:00:00 hrs:
  ----------------------------------------------
                     Demand      Head  Pressure
  Node                  L/s         m         m
  ----------------------------------------------
  JT_0001              0.00     99.99      4.99
  JT_0002              0.00     99.99      4.99
  JT_0003              0.00     99.85     99.85
  JT_0004              0.00     99.71     99.71
  JT_0006              0.00     99.71     99.71
  JT_0007              0.00      5.02      5.02
  JT_0009              0.00      5.02      5.02
  JT_0005              0.00     99.71     99.71
  JT_0008              0.00      5.02      5.02
  RES_001            -18.00    100.00     -0.00  Reservoir
  RES_002             18.00      5.00      0.00  Reservoir
   
   
  Link Results at 4:00:00 hrs:
  ----------------------------------------------
                       Flow  Velocity  Headloss
  Link                  L/s       m/s    /1000m
  ----------------------------------------------
  PL_0001             18.00      0.37      7.36
  PL_0002             18.00      0.37      0.57
  PL_0003             18.00      0.37      0.57
  Reducer             18.00      0.37      0.51
  Diffuser            18.00      0.37      0.51
  PL_0004             18.00      0.37      3.94
  RIKO                18.00      0.37     94.68  FCV
  GV_0001             18.00      0.37      0.00  TCV
  GV_0002             18.00      0.37      0.00  TCV
  GV_0003             18.00      0.37      0.00  TCV
   
   
  Node Results at 5:00:00 hrs:
  ----------------------------------------------
                     Demand      Head  Pressure
  Node                  L/s         m         m
  ----------------------------------------------
  JT_0001              0.00     99.99      4.99
  JT_0002              0.00     99.99      4.99
  JT_0003              0.00     99.78     99.78
  JT_0004              0.00     99.58     99.58
  JT_0006              0.00     99.58     99.58
  JT_0007              0.00      5.03      5.03
  JT_0009              0.00      5.03      5.03
  JT_0005              0.00     99.58     99.58
  JT_0008              0.00      5.03      5.03
  RES_001            -22.00    100.00     -0.00  Reservoir
  RES_002             22.00      5.00      0.00  Reservoir
   
   
  Link Results at 5:00:00 hrs:
  ----------------------------------------------
                       Flow  Velocity  Headloss
  Link                  L/s       m/s    /1000m
  ----------------------------------------------
  PL_0001             22.00      0.45     10.97
  PL_0002             22.00      0.45      0.82
  PL_0003             22.00      0.45      0.82
  Reducer             22.00      0.45      0.73
  Diffuser            22.00      0.45      0.74
  PL_0004             22.00      0.45      5.85
  RIKO                22.00      0.45     94.54  FCV
  GV_0001             22.00      0.45      0.00  TCV
  GV_0002             22.00      0.45      0.00  TCV
  GV_0003             22.00      0.45      0.00  TCV
   
   
  Node Results at 6:00:00 hrs:
  ----------------------------------------------
                     Demand      Head  Pressure
  Node                  L/s         m         m
  ----------------------------------------------
  JT_0001              0.00     99.98      4.98
  JT_0002              0.00     99.98      4.98
  JT_0003              0.00     99.70     99.70
  JT_0004              0.00     99.43     99.43
  JT_0006              0.00     99.42     99.42
  JT_0007              0.00      5.05      5.05
  JT_0009              0.00      5.04      5.04
  JT_0005              0.00     99.42     99.42
  JT_0008              0.00      5.04      5.04
  RES_001            -26.00    100.00     -0.00  Reservoir
  RES_002             26.00      5.00      0.00  Reservoir
   
   
  Link Results at 6:00:00 hrs:
  ----------------------------------------------
                       Flow  Velocity  Headloss
  Link                  L/s       m/s    /1000m
  ----------------------------------------------
  PL_0001             26.00      0.53     15.28
  PL_0002             26.00      0.53      1.11
  PL_0003             26.00      0.53      1.11
  Reducer             26.00      0.53      0.99
  Diffuser            26.00      0.53      0.99
  PL_0004             26.00      0.53      8.14
  RIKO                26.00      0.53     94.38  FCV
  GV_0001             26.00      0.53      0.00  TCV
  GV_0002             26.00      0.53      0.00  TCV
  GV_0003             26.00      0.53      0.00  TCV
   
   
  Node Results at 7:00:00 hrs:
  ----------------------------------------------
                     Demand      Head  Pressure
  Node                  L/s         m         m
  ----------------------------------------------
  JT_0001              0.00     99.98      4.98
  JT_0002              0.00     99.98      4.98
  JT_0003              0.00     99.61     99.61
  JT_0004              0.00     99.25     99.25
  JT_0006              0.00     99.25     99.25
  JT_0007              0.00      5.06      5.06
  JT_0009              0.00      5.05      5.05
  JT_0005              0.00     99.25     99.25
  JT_0008              0.00      5.06      5.06
  RES_001            -30.00    100.00     -0.00  Reservoir
  RES_002             30.00      5.00      0.00  Reservoir
   
   
  Link Results at 7:00:00 hrs:
  ----------------------------------------------
                       Flow  Velocity  Headloss
  Link                  L/s       m/s    /1000m
  ----------------------------------------------
  PL_0001             30.00      0.61     20.32
  PL_0002             30.00      0.61      1.44
  PL_0003             30.00      0.61      1.44
  Reducer             30.00      0.61      1.29
  Diffuser            30.00      0.61      1.29
  PL_0004             30.00      0.61     10.80
  RIKO                30.00      0.61     94.19  FCV
  GV_0001             30.00      0.61      0.00  TCV
  GV_0002             30.00      0.61      0.00  TCV
  GV_0003             30.00      0.61      0.00  TCV
   
   
  Node Results at 8:00:00 hrs:
  ----------------------------------------------
                     Demand      Head  Pressure
  Node                  L/s         m         m
  ----------------------------------------------
  JT_0001              0.00     99.98      4.98
  JT_0002              0.00     99.97      4.97
  JT_0003              0.00     99.54     99.54
  JT_0004              0.00     99.11     99.11
  JT_0006              0.00     99.10     99.10
  JT_0007              0.00      5.07      5.07
  JT_0009              0.00      5.07      5.07
  JT_0005              0.00     99.11     99.11
  JT_0008              0.00      5.07      5.07
  RES_001            -33.00    100.00     -0.00  Reservoir
  RES_002             33.00      5.00      0.00  Reservoir
   
   
  Link Results at 8:00:00 hrs:
  ----------------------------------------------
                       Flow  Velocity  Headloss
  Link                  L/s       m/s    /1000m
  ----------------------------------------------
  PL_0001             33.00      0.67     24.56
  PL_0002             33.00      0.67      1.72
  PL_0003             33.00      0.67      1.72
  Reducer             33.00      0.67      1.53
  Diffuser            33.00      0.67      1.53
  PL_0004             33.00      0.67     13.05
  RIKO                33.00      0.67     94.03  FCV
  GV_0001             33.00      0.67      0.01  TCV
  GV_0002             33.00      0.67      0.01  TCV
  GV_0003             33.00      0.67      0.01  TCV
   
   
  Node Results at 9:00:00 hrs:
  ----------------------------------------------
                     Demand      Head  Pressure
  Node                  L/s         m         m
  ----------------------------------------------
  JT_0001              0.00     99.97      4.97
  JT_0002              0.00     99.96      4.96
  JT_0003              0.00     99.43     99.43
  JT_0004              0.00     98.90     98.90
  JT_0006              0.00     98.89     98.89
  JT_0007              0.00      5.09      5.09
  JT_0009              0.00      5.08      5.08
  JT_0005              0.00     98.89     98.89
  JT_0008              0.00      5.09      5.09
  RES_001            -37.00    100.00     -0.00  Reservoir
  RES_002             37.00      5.00      0.00  Reservoir
   
   
  Link Results at 9:00:00 hrs:
  ----------------------------------------------
                       Flow  Velocity  Headloss
  Link                  L/s       m/s    /1000m
  ----------------------------------------------
  PL_0001             37.00      0.75     30.83
  PL_0002             37.00      0.75      2.12
  PL_0003             37.00      0.75      2.12
  Reducer             37.00      0.75      1.89
  Diffuser            37.00      0.75      1.89
  PL_0004             37.00      0.75     16.36
  RIKO                37.00      0.75     93.80  FCV
  GV_0001             37.00      0.75      0.01  TCV
  GV_0002             37.00      0.75      0.01  TCV
  GV_0003             37.00      0.75      0.01  TCV
   
   
  Node Results at 10:00:00 hrs:
  ----------------------------------------------
                     Demand      Head  Pressure
  Node                  L/s         m         m
  ----------------------------------------------
  JT_0001              0.00     99.96      4.96
  JT_0002              0.00     99.95      4.95
  JT_0003              0.00     99.31     99.31
  JT_0004              0.00     98.67     98.67
  JT_0006              0.00     98.66     98.66
  JT_0007              0.00      5.11      5.11
  JT_0009              0.00      5.10      5.10
  JT_0005              0.00     98.66     98.66
  JT_0008              0.00      5.11      5.11
  RES_001            -41.00    100.00     -0.00  Reservoir
  RES_002             41.00      5.00      0.00  Reservoir
   
   
  Link Results at 10:00:00 hrs:
  ----------------------------------------------
                       Flow  Velocity  Headloss
  Link                  L/s       m/s    /1000m
  ----------------------------------------------
  PL_0001             41.00      0.84     37.81
  PL_0002             41.00      0.84      2.57
  PL_0003             41.00      0.84      2.57
  Reducer             41.00      0.84      2.28
  Diffuser            41.00      0.84      2.28
  PL_0004             41.00      0.84     20.05
  RIKO                41.00      0.84     93.55  FCV
  GV_0001             41.00      0.84      0.01  TCV
  GV_0002             41.00      0.84      0.01  TCV
  GV_0003             41.00      0.84      0.01  TCV
   
   
  Node Results at 11:00:00 hrs:
  ----------------------------------------------
                     Demand      Head  Pressure
  Node                  L/s         m         m
  ----------------------------------------------
  JT_0001              0.00     99.96      4.96
  JT_0002              0.00     99.95      4.95
  JT_0003              0.00     99.22     99.22
  JT_0004              0.00     98.49     98.49
  JT_0006              0.00     98.47     98.47
  JT_0007              0.00      5.13      5.13
  JT_0009              0.00      5.12      5.12
  JT_0005              0.00     98.48     98.48
  JT_0008              0.00      5.12      5.12
  RES_001            -44.00    100.00     -0.00  Reservoir
  RES_002             44.00      5.00      0.00  Reservoir
   
   
  Link Results at 11:00:00 hrs:
  ----------------------------------------------
                       Flow  Velocity  Headloss
  Link                  L/s       m/s    /1000m
  ----------------------------------------------
  PL_0001             44.00      0.90     43.52
  PL_0002             44.00      0.90      2.92
  PL_0003             44.00      0.90      2.92
  Reducer             44.00      0.90      2.60
  Diffuser            44.00      0.90      2.60
  PL_0004             44.00      0.90     23.06
  RIKO                44.00      0.90     93.35  FCV
  GV_0001             44.00      0.90      0.01  TCV
  GV_0002             44.00      0.90      0.01  TCV
  GV_0003             44.00      0.90      0.01  TCV
   
   
  Node Results at 12:00:00 hrs:
  ----------------------------------------------
                     Demand      Head  Pressure
  Node                  L/s         m         m
  ----------------------------------------------
  JT_0001              0.00     99.95      4.95
  JT_0002              0.00     99.94      4.94
  JT_0003              0.00     99.08     99.08
  JT_0004              0.00     98.22     98.22
  JT_0006              0.00     98.20     98.20
  JT_0007              0.00      5.15      5.15
  JT_0009              0.00      5.14      5.14
  JT_0005              0.00     98.21     98.21
  JT_0008              0.00      5.15      5.15
  RES_001            -48.00    100.00     -0.00  Reservoir
  RES_002             48.00      5.00      0.00  Reservoir
   
   
  Link Results at 12:00:00 hrs:
  ----------------------------------------------
                       Flow  Velocity  Headloss
  Link                  L/s       m/s    /1000m
  ----------------------------------------------
  PL_0001             48.00      0.98     51.75
  PL_0002             48.00      0.98      3.44
  PL_0003             48.00      0.98      3.44
  Reducer             48.00      0.98      3.04
  Diffuser            48.00      0.98      3.05
  PL_0004             48.00      0.98     27.40
  RIKO                48.00      0.98     93.05  FCV
  GV_0001             48.00      0.98      0.01  TCV
  GV_0002             48.00      0.98      0.01  TCV
  GV_0003             48.00      0.98      0.01  TCV
   
   
  Node Results at 13:00:00 hrs:
  ----------------------------------------------
                     Demand      Head  Pressure
  Node                  L/s         m         m
  ----------------------------------------------
  JT_0001              0.00     99.94      4.94
  JT_0002              0.00     99.93      4.93
  JT_0003              0.00     98.93     98.93
  JT_0004              0.00     97.93     97.93
  JT_0006              0.00     97.92     97.92
  JT_0007              0.00      5.18      5.18
  JT_0009              0.00      5.16      5.16
  JT_0005              0.00     97.92     97.92
  JT_0008              0.00      5.17      5.17
  RES_001            -52.00    100.00     -0.00  Reservoir
  RES_002             52.00      5.00      0.00  Reservoir
   
   
  Link Results at 13:00:00 hrs:
  ----------------------------------------------
                       Flow  Velocity  Headloss
  Link                  L/s       m/s    /1000m
  ----------------------------------------------
  PL_0001             52.00      1.06     60.68
  PL_0002             52.00      1.06      3.99
  PL_0003             52.00      1.06      3.99
  Reducer             52.00      1.06      3.53
  Diffuser            52.00      1.06      3.53
  PL_0004             52.00      1.06     32.11
  RIKO                52.00      1.06     92.74  FCV
  GV_0001             52.00      1.06      0.01  TCV
  GV_0002             52.00      1.06      0.01  TCV
  GV_0003             52.00      1.06      0.01  TCV
   
   
  Node Results at 14:00:00 hrs:
  ----------------------------------------------
                     Demand      Head  Pressure
  Node                  L/s         m         m
  ----------------------------------------------
  JT_0001              0.00     99.93      4.93
  JT_0002              0.00     99.92      4.92
  JT_0003              0.00     98.81     98.81
  JT_0004              0.00     97.71     97.71
  JT_0006              0.00     97.69     97.69
  JT_0007              0.00      5.20      5.20
  JT_0009              0.00      5.18      5.18
  JT_0005              0.00     97.69     97.69
  JT_0008              0.00      5.19      5.19
  RES_001            -55.00    100.00     -0.00  Reservoir
  RES_002             55.00      5.00      0.00  Reservoir
   
   
  Link Results at 14:00:00 hrs:
  ----------------------------------------------
                       Flow  Velocity  Headloss
  Link                  L/s       m/s    /1000m
  ----------------------------------------------
  PL_0001             55.00      1.12     67.86
  PL_0002             55.00      1.12      4.42
  PL_0003             55.00      1.12      4.42
  Reducer             55.00      1.12      3.91
  Diffuser            55.00      1.12      3.91
  PL_0004             55.00      1.12     35.89
  RIKO                55.00      1.12     92.49  FCV
  GV_0001             55.00      1.12      0.01  TCV
  GV_0002             55.00      1.12      0.01  TCV
  GV_0003             55.00      1.12      0.01  TCV
   
   
  Node Results at 15:00:00 hrs:
  ----------------------------------------------
                     Demand      Head  Pressure
  Node                  L/s         m         m
  ----------------------------------------------
  JT_0001              0.00     99.92      4.92
  JT_0002              0.00     99.90      4.90
  JT_0003              0.00     98.64     98.64
  JT_0004              0.00     97.38     97.38
  JT_0006              0.00     97.36     97.36
  JT_0007              0.00      5.23      5.23
  JT_0009              0.00      5.21      5.21
  JT_0005              0.00     97.37     97.37
  JT_0008              0.00      5.22      5.22
  RES_001            -59.00    100.00     -0.00  Reservoir
  RES_002             59.00      5.00      0.00  Reservoir
   
   
  Link Results at 15:00:00 hrs:
  ----------------------------------------------
                       Flow  Velocity  Headloss
  Link                  L/s       m/s    /1000m
  ----------------------------------------------
  PL_0001             59.00      1.20     78.04
  PL_0002             59.00      1.20      5.04
  PL_0003             59.00      1.20      5.04
  Reducer             59.00      1.20      4.46
  Diffuser            59.00      1.20      4.45
  PL_0004             59.00      1.20     41.25
  RIKO                59.00      1.20     92.13  FCV
  GV_0001             59.00      1.20      0.02  TCV
  GV_0002             59.00      1.20      0.02  TCV
  GV_0003             59.00      1.20      0.02  TCV
   
   
  Node Results at 16:00:00 hrs:
  ----------------------------------------------
                     Demand      Head  Pressure
  Node                  L/s         m         m
  ----------------------------------------------
  JT_0001              0.00     99.91      4.91
  JT_0002              0.00     99.89      4.89
  JT_0003              0.00     98.47     98.47
  JT_0004              0.00     97.04     97.04
  JT_0006              0.00     97.02     97.02
  JT_0007              0.00      5.26      5.26
  JT_0009              0.00      5.23      5.23
  JT_0005              0.00     97.02     97.02
  JT_0008              0.00      5.25      5.25
  RES_001            -63.00    100.00     -0.00  Reservoir
  RES_002             63.00      5.00      0.00  Reservoir
   
   
  Link Results at 16:00:00 hrs:
  ----------------------------------------------
                       Flow  Velocity  Headloss
  Link                  L/s       m/s    /1000m
  ----------------------------------------------
  PL_0001             63.00      1.28     88.92
  PL_0002             63.00      1.28      5.70
  PL_0003             63.00      1.28      5.70
  Reducer             63.00      1.28      5.02
  Diffuser            63.00      1.28      5.03
  PL_0004             63.00      1.28     46.98
  RIKO                63.00      1.28     91.76  FCV
  GV_0001             63.00      1.28      0.02  TCV
  GV_0002             63.00      1.28      0.02  TCV
  GV_0003             63.00      1.28      0.02  TCV
   
   
  Node Results at 17:00:00 hrs:
  ----------------------------------------------
                     Demand      Head  Pressure
  Node                  L/s         m         m
  ----------------------------------------------
  JT_0001              0.00     99.90      4.90
  JT_0002              0.00     99.88      4.88
  JT_0003              0.00     98.33     98.33
  JT_0004              0.00     96.77     96.77
  JT_0006              0.00     96.75     96.75
  JT_0007              0.00      5.28      5.28
  JT_0009              0.00      5.26      5.26
  JT_0005              0.00     96.75     96.75
  JT_0008              0.00      5.28      5.28
  RES_001            -66.00    100.00     -0.00  Reservoir
  RES_002             66.00      5.00      0.00  Reservoir
   
   
  Link Results at 17:00:00 hrs:
  ----------------------------------------------
                       Flow  Velocity  Headloss
  Link                  L/s       m/s    /1000m
  ----------------------------------------------
  PL_0001             66.00      1.34     97.56
  PL_0002             66.00      1.34      6.21
  PL_0003             66.00      1.34      6.21
  Reducer             66.00      1.34      5.48
  Diffuser            66.00      1.34      5.48
  PL_0004             66.00      1.34     51.52
  RIKO                66.00      1.34     91.46  FCV
  GV_0001             66.00      1.34      0.02  TCV
  GV_0002             66.00      1.34      0.02  TCV
  GV_0003             66.00      1.34      0.02  TCV
   
   
  Node Results at 18:00:00 hrs:
  ----------------------------------------------
                     Demand      Head  Pressure
  Node                  L/s         m         m
  ----------------------------------------------
  JT_0001              0.00     99.89      4.89
  JT_0002              0.00     99.87      4.87
  JT_0003              0.00     98.13     98.13
  JT_0004              0.00     96.40     96.40
  JT_0006              0.00     96.37     96.37
  JT_0007              0.00      5.32      5.32
  JT_0009              0.00      5.29      5.29
  JT_0005              0.00     96.37     96.37
  JT_0008              0.00      5.31      5.31
  RES_001            -70.00    100.00     -0.00  Reservoir
  RES_002             70.00      5.00      0.00  Reservoir
   
   
  Link Results at 18:00:00 hrs:
  ----------------------------------------------
                       Flow  Velocity  Headloss
  Link                  L/s       m/s    /1000m
  ----------------------------------------------
  PL_0001             70.00      1.43    109.69
  PL_0002             70.00      1.43      6.93
  PL_0003             70.00      1.43      6.93
  Reducer             70.00      1.43      6.11
  Diffuser            70.00      1.43      6.11
  PL_0004             70.00      1.43     57.90
  RIKO                70.00      1.43     91.05  FCV
  GV_0001             70.00      1.43      0.02  TCV
  GV_0002             70.00      1.43      0.02  TCV
  GV_0003             70.00      1.43      0.02  TCV
   
   
  Node Results at 19:00:00 hrs:
  ----------------------------------------------
                     Demand      Head  Pressure
  Node                  L/s         m         m
  ----------------------------------------------
  JT_0001              0.00     99.88      4.88
  JT_0002              0.00     99.85      4.85
  JT_0003              0.00     97.93     97.93
  JT_0004              0.00     96.00     96.00
  JT_0006              0.00     95.97     95.97
  JT_0007              0.00      5.36      5.36
  JT_0009              0.00      5.32      5.32
  JT_0005              0.00     95.98     95.98
  JT_0008              0.00      5.35      5.35
  RES_001            -74.00    100.00     -0.00  Reservoir
  RES_002             74.00      5.00      0.00  Reservoir
   
   
  Link Results at 19:00:00 hrs:
  ----------------------------------------------
                       Flow  Velocity  Headloss
  Link                  L/s       m/s    /1000m
  ----------------------------------------------
  PL_0001             74.00      1.51    122.53
  PL_0002             74.00      1.51      7.69
  PL_0003             74.00      1.51      7.69
  Reducer             74.00      1.51      6.76
  Diffuser            74.00      1.51      6.77
  PL_0004             74.00      1.51     64.65
  RIKO                74.00      1.51     90.61  FCV
  GV_0001             74.00      1.51      0.03  TCV
  GV_0002             74.00      1.51      0.03  TCV
  GV_0003             74.00      1.51      0.03  TCV
   
   
  Node Results at 20:00:00 hrs:
  ----------------------------------------------
                     Demand      Head  Pressure
  Node                  L/s         m         m
  ----------------------------------------------
  JT_0001              0.00     99.86      4.86
  JT_0002              0.00     99.83      4.83
  JT_0003              0.00     97.71     97.71
  JT_0004              0.00     95.59     95.59
  JT_0006              0.00     95.55     95.55
  JT_0007              0.00      5.40      5.40
  JT_0009              0.00      5.36      5.36
  JT_0005              0.00     95.56     95.56
  JT_0008              0.00      5.39      5.39
  RES_001            -78.00    100.00     -0.00  Reservoir
  RES_002             78.00      5.00      0.00  Reservoir
   
   
  Link Results at 20:00:00 hrs:
  ----------------------------------------------
                       Flow  Velocity  Headloss
  Link                  L/s       m/s    /1000m
  ----------------------------------------------
  PL_0001             78.00      1.59    136.08
  PL_0002             78.00      1.59      8.49
  PL_0003             78.00      1.59      8.49
  Reducer             78.00      1.59      7.46
  Diffuser            78.00      1.59      7.46
  PL_0004             78.00      1.59     71.77
  RIKO                78.00      1.59     90.16  FCV
  GV_0001             78.00      1.59      0.03  TCV
  GV_0002             78.00      1.59      0.03  TCV
  GV_0003             78.00      1.59      0.03  TCV
   
   
  Node Results at 21:00:00 hrs:
  ----------------------------------------------
                     Demand      Head  Pressure
  Node                  L/s         m         m
  ----------------------------------------------
  JT_0001              0.00     99.85      4.85
  JT_0002              0.00     99.82      4.82
  JT_0003              0.00     97.54     97.54
  JT_0004              0.00     95.26     95.26
  JT_0006              0.00     95.22     95.22
  JT_0007              0.00      5.43      5.43
  JT_0009              0.00      5.39      5.39
  JT_0005              0.00     95.23     95.23
  JT_0008              0.00      5.42      5.42
  RES_001            -81.00    100.00     -0.00  Reservoir
  RES_002             81.00      5.00      0.00  Reservoir
   
   
  Link Results at 21:00:00 hrs:
  ----------------------------------------------
                       Flow  Velocity  Headloss
  Link                  L/s       m/s    /1000m
  ----------------------------------------------
  PL_0001             81.00      1.65    146.70
  PL_0002             81.00      1.65      9.11
  PL_0003             81.00      1.65      9.11
  Reducer             81.00      1.65      8.01
  Diffuser            81.00      1.65      8.00
  PL_0004             81.00      1.65     77.35
  RIKO                81.00      1.65     89.80  FCV
  GV_0001             81.00      1.65      0.03  TCV
  GV_0002             81.00      1.65      0.03  TCV
  GV_0003             81.00      1.65      0.03  TCV
   
   
  Node Results at 22:00:00 hrs:
  ----------------------------------------------
                     Demand      Head  Pressure
  Node                  L/s         m         m
  ----------------------------------------------
  JT_0001              0.00     99.84      4.84
  JT_0002              0.00     99.80      4.80
  JT_0003              0.00     97.31     97.31
  JT_0004              0.00     94.82     94.82
  JT_0006              0.00     94.77     94.77
  JT_0007              0.00      5.47      5.47
  JT_0009              0.00      5.43      5.43
  JT_0005              0.00     94.78     94.78
  JT_0008              0.00      5.46      5.46
  RES_001            -85.00    100.00     -0.00  Reservoir
  RES_002             85.00      5.00      0.00  Reservoir
   
   
  Link Results at 22:00:00 hrs:
  ----------------------------------------------
                       Flow  Velocity  Headloss
  Link                  L/s       m/s    /1000m
  ----------------------------------------------
  PL_0001             85.00      1.73    161.49
  PL_0002             85.00      1.73      9.97
  PL_0003             85.00      1.73      9.97
  Reducer             85.00      1.73      8.75
  Diffuser            85.00      1.73      8.75
  PL_0004             85.00      1.73     85.12
  RIKO                85.00      1.73     89.30  FCV
  GV_0001             85.00      1.73      0.04  TCV
  GV_0002             85.00      1.73      0.04  TCV
  GV_0003             85.00      1.73      0.04  TCV
   
   
  Node Results at 23:00:00 hrs:
  ----------------------------------------------
                     Demand      Head  Pressure
  Node                  L/s         m         m
  ----------------------------------------------
  JT_0001              0.00     99.82      4.82
  JT_0002              0.00     99.78      4.78
  JT_0003              0.00     97.07     97.07
  JT_0004              0.00     94.35     94.35
  JT_0006              0.00     94.30     94.30
  JT_0007              0.00      5.51      5.51
  JT_0009              0.00      5.47      5.47
  JT_0005              0.00     94.31     94.31
  JT_0008              0.00      5.51      5.51
  RES_001            -89.00    100.00     -0.00  Reservoir
  RES_002             89.00      5.00      0.00  Reservoir
   
   
  Link Results at 23:00:00 hrs:
  ----------------------------------------------
                       Flow  Velocity  Headloss
  Link                  L/s       m/s    /1000m
  ----------------------------------------------
  PL_0001             89.00      1.81    176.98
  PL_0002             89.00      1.81     10.87
  PL_0003             89.00      1.81     10.87
  Reducer             89.00      1.81      9.52
  Diffuser            89.00      1.81      9.53
  PL_0004             89.00      1.81     93.26
  RIKO                89.00      1.81     88.78  FCV
  GV_0001             89.00      1.81      0.04  TCV
  GV_0002             89.00      1.81      0.04  TCV
  GV_0003             89.00      1.81      0.04  TCV
   
   
  Node Results at 24:00:00 hrs:
  ----------------------------------------------
                     Demand      Head  Pressure
  Node                  L/s         m         m
  ----------------------------------------------
  JT_0001              0.00     99.81      4.81
  JT_0002              0.00     99.77      4.77
  JT_0003              0.00     96.88     96.88
  JT_0004              0.00     93.98     93.98
  JT_0006              0.00     93.93     93.93
  JT_0007              0.00      5.55      5.55
  JT_0009              0.00      5.50      5.50
  JT_0005              0.00     93.94     93.94
  JT_0008              0.00      5.54      5.54
  RES_001            -92.00    100.00     -0.00  Reservoir
  RES_002             92.00      5.00      0.00  Reservoir
   
   
  Link Results at 24:00:00 hrs:
  ----------------------------------------------
                       Flow  Velocity  Headloss
  Link                  L/s       m/s    /1000m
  ----------------------------------------------
  PL_0001             92.00      1.87    189.07
  PL_0002             92.00      1.87     11.57
  PL_0003             92.00      1.87     11.57
  Reducer             92.00      1.87     10.14
  Diffuser            92.00      1.87     10.14
  PL_0004             92.00      1.87     99.60
  RIKO                92.00      1.87     88.38  FCV
  GV_0001             92.00      1.87      0.04  TCV
  GV_0002             92.00      1.87      0.04  TCV
  GV_0003             92.00      1.87      0.04  TCV
   
   
  Node Results at 25:00:00 hrs:
  ----------------------------------------------
                     Demand      Head  Pressure
  Node                  L/s         m         m
  ----------------------------------------------
  JT_0001              0.00     99.79      4.79
  JT_0002              0.00     99.75      4.75
  JT_0003              0.00     96.61     96.61
  JT_0004              0.00     93.48     93.48
  JT_0006              0.00     93.42     93.42
  JT_0007              0.00      5.60      5.60
  JT_0009              0.00      5.54      5.54
  JT_0005              0.00     93.44     93.44
  JT_0008              0.00      5.59      5.59
  RES_001            -96.00    100.00     -0.00  Reservoir
  RES_002             96.00      5.00      0.00  Reservoir
   
   
  Link Results at 25:00:00 hrs:
  ----------------------------------------------
                       Flow  Velocity  Headloss
  Link                  L/s       m/s    /1000m
  ----------------------------------------------
  PL_0001             96.00      1.96    205.80
  PL_0002             96.00      1.96     12.54
  PL_0003             96.00      1.96     12.54
  Reducer             96.00      1.96     10.98
  Diffuser            96.00      1.96     10.98
  PL_0004             96.00      1.96    108.39
  RIKO                96.00      1.96     87.83  FCV
  GV_0001             96.00      1.96      0.05  TCV
  GV_0002             96.00      1.96      0.05  TCV
  GV_0003             96.00      1.96      0.05  TCV
   
   
  Node Results at 26:00:00 hrs:
  ----------------------------------------------
                     Demand      Head  Pressure
  Node                  L/s         m         m
  ----------------------------------------------
  JT_0001              0.00     99.78      4.78
  JT_0002              0.00     99.73      4.73
  JT_0003              0.00     96.34     96.34
  JT_0004              0.00     92.96     92.96
  JT_0006              0.00     92.90     92.90
  JT_0007              0.00      5.65      5.65
  JT_0009              0.00      5.59      5.59
  JT_0005              0.00     92.91     92.91
  JT_0008              0.00      5.64      5.64
  RES_001           -100.00    100.00     -0.00  Reservoir
  RES_002            100.00      5.00      0.00  Reservoir
   
   
  Link Results at 26:00:00 hrs:
  ----------------------------------------------
                       Flow  Velocity  Headloss
  Link                  L/s       m/s    /1000m
  ----------------------------------------------
  PL_0001            100.00      2.04    223.24
  PL_0002            100.00      2.04     13.54
  PL_0003            100.00      2.04     13.54
  Reducer            100.00      2.04     11.84
  Diffuser           100.00      2.04     11.85
  PL_0004            100.00      2.04    117.54
  RIKO               100.00      2.04     87.25  FCV
  GV_0001            100.00      2.04      0.05  TCV
  GV_0002            100.00      2.04      0.05  TCV
  GV_0003            100.00      2.04      0.05  TCV
   
   
  Node Results at 27:00:00 hrs:
  ----------------------------------------------
                     Demand      Head  Pressure
  Node                  L/s         m         m
  ----------------------------------------------
  JT_0001              0.00     99.76      4.76
  JT_0002              0.00     99.71      4.71
  JT_0003              0.00     96.13     96.13
  JT_0004              0.00     92.56     92.56
  JT_0006              0.00     92.49     92.49
  JT_0007              0.00      5.69      5.69
  JT_0009              0.00      5.62      5.62
  JT_0005              0.00     92.50     92.50
  JT_0008              0.00      5.68      5.68
  RES_001           -103.00    100.00     -0.00  Reservoir
  RES_002            103.00      5.00      0.00  Reservoir
   
   
  Link Results at 27:00:00 hrs:
  ----------------------------------------------
                       Flow  Velocity  Headloss
  Link                  L/s       m/s    /1000m
  ----------------------------------------------
  PL_0001            103.00      2.10    236.79
  PL_0002            103.00      2.10     14.31
  PL_0003            103.00      2.10     14.31
  Reducer            103.00      2.10     12.52
  Diffuser           103.00      2.10     12.52
  PL_0004            103.00      2.10    124.65
  RIKO               103.00      2.10     86.80  FCV
  GV_0001            103.00      2.10      0.05  TCV
  GV_0002            103.00      2.10      0.05  TCV
  GV_0003            103.00      2.10      0.05  TCV
   
   
  Node Results at 28:00:00 hrs:
  ----------------------------------------------
                     Demand      Head  Pressure
  Node                  L/s         m         m
  ----------------------------------------------
  JT_0001              0.00     99.74      4.74
  JT_0002              0.00     99.69      4.69
  JT_0003              0.00     95.84     95.84
  JT_0004              0.00     92.00     92.00
  JT_0006              0.00     91.93     91.93
  JT_0007              0.00      5.74      5.74
  JT_0009              0.00      5.67      5.67
  JT_0005              0.00     91.94     91.94
  JT_0008              0.00      5.73      5.73
  RES_001           -107.00    100.00     -0.00  Reservoir
  RES_002            107.00      5.00      0.00  Reservoir
   
   
  Link Results at 28:00:00 hrs:
  ----------------------------------------------
                       Flow  Velocity  Headloss
  Link                  L/s       m/s    /1000m
  ----------------------------------------------
  PL_0001            107.00      2.18    255.47
  PL_0002            107.00      2.18     15.38
  PL_0003            107.00      2.18     15.38
  Reducer            107.00      2.18     13.44
  Diffuser           107.00      2.18     13.44
  PL_0004            107.00      2.18    134.46
  RIKO               107.00      2.18     86.19  FCV
  GV_0001            107.00      2.18      0.06  TCV
  GV_0002            107.00      2.18      0.06  TCV
  GV_0003            107.00      2.18      0.06  TCV
   
   
  Node Results at 29:00:00 hrs:
  ----------------------------------------------
                     Demand      Head  Pressure
  Node                  L/s         m         m
  ----------------------------------------------
  JT_0001              0.00     99.73      4.73
  JT_0002              0.00     99.66      4.66
  JT_0003              0.00     95.55     95.55
  JT_0004              0.00     91.43     91.43
  JT_0006              0.00     91.35     91.35
  JT_0007              0.00      5.80      5.80
  JT_0009              0.00      5.72      5.72
  JT_0005              0.00     91.37     91.37
  JT_0008              0.00      5.78      5.78
  RES_001           -111.00    100.00     -0.00  Reservoir
  RES_002            111.00      5.00      0.00  Reservoir
   
   
  Link Results at 29:00:00 hrs:
  ----------------------------------------------
                       Flow  Velocity  Headloss
  Link                  L/s       m/s    /1000m
  ----------------------------------------------
  PL_0001            111.00      2.26    274.86
  PL_0002            111.00      2.26     16.48
  PL_0003            111.00      2.26     16.48
  Reducer            111.00      2.26     14.39
  Diffuser           111.00      2.26     14.39
  PL_0004            111.00      2.26    144.63
  RIKO               111.00      2.26     85.55  FCV
  GV_0001            111.00      2.26      0.06  TCV
  GV_0002            111.00      2.26      0.06  TCV
  GV_0003            111.00      2.26      0.06  TCV
   
   
  Node Results at 30:00:00 hrs:
  ----------------------------------------------
                     Demand      Head  Pressure
  Node                  L/s         m         m
  ----------------------------------------------
  JT_0001              0.00     99.71      4.71
  JT_0002              0.00     99.65      4.65
  JT_0003              0.00     95.31     95.31
  JT_0004              0.00     90.98     90.98
  JT_0006              0.00     90.90     90.90
  JT_0007              0.00      5.84      5.84
  JT_0009              0.00      5.76      5.76
  JT_0005              0.00     90.92     90.92
  JT_0008              0.00      5.83      5.83
  RES_001           -114.00    100.00     -0.00  Reservoir
  RES_002            114.00      5.00      0.00  Reservoir
   
   
  Link Results at 30:00:00 hrs:
  ----------------------------------------------
                       Flow  Velocity  Headloss
  Link                  L/s       m/s    /1000m
  ----------------------------------------------
  PL_0001            114.00      2.32    289.86
  PL_0002            114.00      2.32     17.33
  PL_0003            114.00      2.32     17.33
  Reducer            114.00      2.32     15.13
  Diffuser           114.00      2.32     15.13
  PL_0004            114.00      2.32    152.50
  RIKO               114.00      2.32     85.06  FCV
  GV_0001            114.00      2.32      0.06  TCV
  GV_0002            114.00      2.32      0.06  TCV
  GV_0003            114.00      2.32      0.06  TCV
   
   
  Node Results at 31:00:00 hrs:
  ----------------------------------------------
                     Demand      Head  Pressure
  Node                  L/s         m         m
  ----------------------------------------------
  JT_0001              0.00     99.69      4.69
  JT_0002              0.00     99.62      4.62
  JT_0003              0.00     95.00     95.00
  JT_0004              0.00     90.37     90.37
  JT_0006              0.00     90.29     90.29
  JT_0007              0.00      5.90      5.90
  JT_0009              0.00      5.82      5.82
  JT_0005              0.00     90.31     90.31
  JT_0008              0.00      5.89      5.89
  RES_001           -118.00    100.00     -0.00  Reservoir
  RES_002            118.00      5.00      0.00  Reservoir
   
   
  Link Results at 31:00:00 hrs:
  ----------------------------------------------
                       Flow  Velocity  Headloss
  Link                  L/s       m/s    /1000m
  ----------------------------------------------
  PL_0001            118.00      2.40    310.49
  PL_0002            118.00      2.40     18.49
  PL_0003            118.00      2.40     18.49
  Reducer            118.00      2.40     16.14
  Diffuser           118.00      2.40     16.14
  PL_0004            118.00      2.40    163.31
  RIKO               118.00      2.40     84.39  FCV
  GV_0001            118.00      2.40      0.07  TCV
  GV_0002            118.00      2.40      0.07  TCV
  GV_0003            118.00      2.40      0.07  TCV
   
   
  Node Results at 32:00:00 hrs:
  ----------------------------------------------
                     Demand      Head  Pressure
  Node                  L/s         m         m
  ----------------------------------------------
  JT_0001              0.00     99.67      4.67
  JT_0002              0.00     99.59      4.59
  JT_0003              0.00     94.67     94.67
  JT_0004              0.00     89.75     89.75
  JT_0006              0.00     89.66     89.66
  JT_0007              0.00      5.96      5.96
  JT_0009              0.00      5.87      5.87
  JT_0005              0.00     89.67     89.67
  JT_0008              0.00      5.95      5.95
  RES_001           -122.00    100.00     -0.00  Reservoir
  RES_002            122.00      5.00      0.00  Reservoir
   
   
  Link Results at 32:00:00 hrs:
  ----------------------------------------------
                       Flow  Velocity  Headloss
  Link                  L/s       m/s    /1000m
  ----------------------------------------------
  PL_0001            122.00      2.49    331.82
  PL_0002            122.00      2.49     19.70
  PL_0003            122.00      2.49     19.70
  Reducer            122.00      2.49     17.17
  Diffuser           122.00      2.49     17.18
  PL_0004            122.00      2.49    174.50
  RIKO               122.00      2.49     83.69  FCV
  GV_0001            122.00      2.49      0.07  TCV
  GV_0002            122.00      2.49      0.07  TCV
  GV_0003            122.00      2.49      0.07  TCV
   
   
  Node Results at 33:00:00 hrs:
  ----------------------------------------------
                     Demand      Head  Pressure
  Node                  L/s         m         m
  ----------------------------------------------
  JT_0001              0.00     99.65      4.65
  JT_0002              0.00     99.57      4.57
  JT_0003              0.00     94.33     94.33
  JT_0004              0.00     89.10     89.10
  JT_0006              0.00     89.00     89.00
  JT_0007              0.00      6.03      6.03
  JT_0009              0.00      5.93      5.93
  JT_0005              0.00     89.02     89.02
  JT_0008              0.00      6.01      6.01
  RES_001           -126.00    100.00     -0.00  Reservoir
  RES_002            126.00      5.00      0.00  Reservoir
   
   
  Link Results at 33:00:00 hrs:
  ----------------------------------------------
                       Flow  Velocity  Headloss
  Link                  L/s       m/s    /1000m
  ----------------------------------------------
  PL_0001            126.00      2.57    353.87
  PL_0002            126.00      2.57     20.93
  PL_0003            126.00      2.57     20.93
  Reducer            126.00      2.57     18.25
  Diffuser           126.00      2.57     18.25
  PL_0004            126.00      2.57    186.06
  RIKO               126.00      2.57     82.98  FCV
  GV_0001            126.00      2.57      0.08  TCV
  GV_0002            126.00      2.57      0.08  TCV
  GV_0003            126.00      2.57      0.08  TCV
   
   
  Node Results at 34:00:00 hrs:
  ----------------------------------------------
                     Demand      Head  Pressure
  Node                  L/s         m         m
  ----------------------------------------------
  JT_0001              0.00     99.63      4.63
  JT_0002              0.00     99.55      4.55
  JT_0003              0.00     94.08     94.08
  JT_0004              0.00     88.60     88.60
  JT_0006              0.00     88.50     88.50
  JT_0007              0.00      6.08      6.08
  JT_0009              0.00      5.97      5.97
  JT_0005              0.00     88.52     88.52
  JT_0008              0.00      6.06      6.06
  RES_001           -129.00    100.00     -0.00  Reservoir
  RES_002            129.00      5.00      0.00  Reservoir
   
   
  Link Results at 34:00:00 hrs:
  ----------------------------------------------
                       Flow  Velocity  Headloss
  Link                  L/s       m/s    /1000m
  ----------------------------------------------
  PL_0001            129.00      2.63    370.86
  PL_0002            129.00      2.63     21.89
  PL_0003            129.00      2.63     21.89
  Reducer            129.00      2.63     19.07
  Diffuser           129.00      2.63     19.07
  PL_0004            129.00      2.63    194.97
  RIKO               129.00      2.63     82.43  FCV
  GV_0001            129.00      2.63      0.08  TCV
  GV_0002            129.00      2.63      0.08  TCV
  GV_0003            129.00      2.63      0.08  TCV
   
   
  Node Results at 35:00:00 hrs:
  ----------------------------------------------
                     Demand      Head  Pressure
  Node                  L/s         m         m
  ----------------------------------------------
  JT_0001              0.00     99.61      4.61
  JT_0002              0.00     99.52      4.52
  JT_0003              0.00     93.72     93.72
  JT_0004              0.00     87.92     87.92
  JT_0006              0.00     87.82     87.82
  JT_0007              0.00      6.14      6.14
  JT_0009              0.00      6.04      6.04
  JT_0005              0.00     87.84     87.84
  JT_0008              0.00      6.12      6.12
  RES_001           -133.00    100.00     -0.00  Reservoir
  RES_002            133.00      5.00      0.00  Reservoir
   
   
  Link Results at 35:00:00 hrs:
  ----------------------------------------------
                       Flow  Velocity  Headloss
  Link                  L/s       m/s    /1000m
  ----------------------------------------------
  PL_0001            133.00      2.71    394.14
  PL_0002            133.00      2.71     23.19
  PL_0003            133.00      2.71     23.19
  Reducer            133.00      2.71     20.19
  Diffuser           133.00      2.71     20.20
  PL_0004            133.00      2.71    207.17
  RIKO               133.00      2.71     81.67  FCV
  GV_0001            133.00      2.71      0.09  TCV
  GV_0002            133.00      2.71      0.09  TCV
  GV_0003            133.00      2.71      0.09  TCV
   
   
  Node Results at 36:00:00 hrs:
  ----------------------------------------------
                     Demand      Head  Pressure
  Node                  L/s         m         m
  ----------------------------------------------
  JT_0001              0.00     99.58      4.58
  JT_0002              0.00     99.49      4.49
  JT_0003              0.00     93.36     93.36
  JT_0004              0.00     87.23     87.23
  JT_0006              0.00     87.11     87.11
  JT_0007              0.00      6.21      6.21
  JT_0009              0.00      6.10      6.10
  JT_0005              0.00     87.13     87.13
  JT_0008              0.00      6.19      6.19
  RES_001           -137.00    100.00     -0.00  Reservoir
  RES_002            137.00      5.00      0.00  Reservoir
   
   
  Link Results at 36:00:00 hrs:
  ----------------------------------------------
                       Flow  Velocity  Headloss
  Link                  L/s       m/s    /1000m
  ----------------------------------------------
  PL_0001            137.00      2.79    418.12
  PL_0002            137.00      2.79     24.53
  PL_0003            137.00      2.79     24.53
  Reducer            137.00      2.79     21.35
  Diffuser           137.00      2.79     21.35
  PL_0004            137.00      2.79    219.74
  RIKO               137.00      2.79     80.90  FCV
  GV_0001            137.00      2.79      0.09  TCV
  GV_0002            137.00      2.79      0.09  TCV
  GV_0003            137.00      2.79      0.09  TCV
   
   
  Node Results at 37:00:00 hrs:
  ----------------------------------------------
                     Demand      Head  Pressure
  Node                  L/s         m         m
  ----------------------------------------------
  JT_0001              0.00     99.56      4.56
  JT_0002              0.00     99.47      4.47
  JT_0003              0.00     93.08     93.08
  JT_0004              0.00     86.69     86.69
  JT_0006              0.00     86.57     86.57
  JT_0007              0.00      6.27      6.27
  JT_0009              0.00      6.15      6.15
  JT_0005              0.00     86.59     86.59
  JT_0008              0.00      6.24      6.24
  RES_001           -140.00    100.00     -0.00  Reservoir
  RES_002            140.00      5.00      0.00  Reservoir
   
   
  Link Results at 37:00:00 hrs:
  ----------------------------------------------
                       Flow  Velocity  Headloss
  Link                  L/s       m/s    /1000m
  ----------------------------------------------
  PL_0001            140.00      2.85    436.58
  PL_0002            140.00      2.85     25.56
  PL_0003            140.00      2.85     25.56
  Reducer            140.00      2.85     22.24
  Diffuser           140.00      2.85     22.24
  PL_0004            140.00      2.85    229.41
  RIKO               140.00      2.85     80.30  FCV
  GV_0001            140.00      2.85      0.10  TCV
  GV_0002            140.00      2.85      0.10  TCV
  GV_0003            140.00      2.85      0.10  TCV
   
   
  Node Results at 38:00:00 hrs:
  ----------------------------------------------
                     Demand      Head  Pressure
  Node                  L/s         m         m
  ----------------------------------------------
  JT_0001              0.00     99.54      4.54
  JT_0002              0.00     99.44      4.44
  JT_0003              0.00     92.70     92.70
  JT_0004              0.00     85.96     85.96
  JT_0006              0.00     85.83     85.83
  JT_0007              0.00      6.34      6.34
  JT_0009              0.00      6.21      6.21
  JT_0005              0.00     85.86     85.86
  JT_0008              0.00      6.32      6.32
  RES_001           -144.00    100.00     -0.00  Reservoir
  RES_002            144.00      5.00      0.00  Reservoir
   
   
  Link Results at 38:00:00 hrs:
  ----------------------------------------------
                       Flow  Velocity  Headloss
  Link                  L/s       m/s    /1000m
  ----------------------------------------------
  PL_0001            144.00      2.93    461.80
  PL_0002            144.00      2.93     26.96
  PL_0003            144.00      2.93     26.96
  Reducer            144.00      2.93     23.45
  Diffuser           144.00      2.93     23.45
  PL_0004            144.00      2.93    242.63
  RIKO               144.00      2.93     79.49  FCV
  GV_0001            144.00      2.93      0.10  TCV
  GV_0002            144.00      2.93      0.10  TCV
  GV_0003            144.00      2.93      0.10  TCV
   
   
  Node Results at 39:00:00 hrs:
  ----------------------------------------------
                     Demand      Head  Pressure
  Node                  L/s         m         m
  ----------------------------------------------
  JT_0001              0.00     99.51      4.51
  JT_0002              0.00     99.40      4.40
  JT_0003              0.00     92.31     92.31
  JT_0004              0.00     85.21     85.21
  JT_0006              0.00     85.07     85.07
  JT_0007              0.00      6.41      6.41
  JT_0009              0.00      6.28      6.28
  JT_0005              0.00     85.10     85.10
  JT_0008              0.00      6.39      6.39
  RES_001           -148.00    100.00     -0.00  Reservoir
  RES_002            148.00      5.00      0.00  Reservoir
   
   
  Link Results at 39:00:00 hrs:
  ----------------------------------------------
                       Flow  Velocity  Headloss
  Link                  L/s       m/s    /1000m
  ----------------------------------------------
  PL_0001            148.00      3.02    487.74
  PL_0002            148.00      3.02     28.40
  PL_0003            148.00      3.02     28.40
  Reducer            148.00      3.02     24.70
  Diffuser           148.00      3.02     24.69
  PL_0004            148.00      3.02    256.22
  RIKO               148.00      3.02     78.66  FCV
  GV_0001            148.00      3.02      0.11  TCV
  GV_0002            148.00      3.02      0.11  TCV
  GV_0003            148.00      3.02      0.11  TCV
   
   
  Node Results at 40:00:00 hrs:
  ----------------------------------------------
                     Demand      Head  Pressure
  Node                  L/s         m         m
  ----------------------------------------------
  JT_0001              0.00     99.49      4.49
  JT_0002              0.00     99.38      4.38
  JT_0003              0.00     92.01     92.01
  JT_0004              0.00     84.63     84.63
  JT_0006              0.00     84.49     84.49
  JT_0007              0.00      6.47      6.47
  JT_0009              0.00      6.33      6.33
  JT_0005              0.00     84.52     84.52
  JT_0008              0.00      6.45      6.45
  RES_001           -151.00    100.00     -0.00  Reservoir
  RES_002            151.00      5.00      0.00  Reservoir
   
   
  Link Results at 40:00:00 hrs:
  ----------------------------------------------
                       Flow  Velocity  Headloss
  Link                  L/s       m/s    /1000m
  ----------------------------------------------
  PL_0001            151.00      3.08    507.65
  PL_0002            151.00      3.08     29.50
  PL_0003            151.00      3.08     29.50
  Reducer            151.00      3.08     25.64
  Diffuser           151.00      3.08     25.64
  PL_0004            151.00      3.08    266.65
  RIKO               151.00      3.08     78.02  FCV
  GV_0001            151.00      3.08      0.11  TCV
  GV_0002            151.00      3.08      0.11  TCV
  GV_0003            151.00      3.08      0.11  TCV
   
   
  Node Results at 41:00:00 hrs:
  ----------------------------------------------
                     Demand      Head  Pressure
  Node                  L/s         m         m
  ----------------------------------------------
  JT_0001              0.00     99.47      4.47
  JT_0002              0.00     99.35      4.35
  JT_0003              0.00     91.60     91.60
  JT_0004              0.00     83.85     83.85
  JT_0006              0.00     83.70     83.70
  JT_0007              0.00      6.55      6.55
  JT_0009              0.00      6.40      6.40
  JT_0005              0.00     83.73     83.73
  JT_0008              0.00      6.52      6.52
  RES_001           -155.00    100.00     -0.00  Reservoir
  RES_002            155.00      5.00      0.00  Reservoir
   
   
  Link Results at 41:00:00 hrs:
  ----------------------------------------------
                       Flow  Velocity  Headloss
  Link                  L/s       m/s    /1000m
  ----------------------------------------------
  PL_0001            155.00      3.16    534.82
  PL_0002            155.00      3.16     31.00
  PL_0003            155.00      3.16     31.00
  Reducer            155.00      3.16     26.94
  Diffuser           155.00      3.16     26.94
  PL_0004            155.00      3.16    280.88
  RIKO               155.00      3.16     77.15  FCV
  GV_0001            155.00      3.16      0.12  TCV
  GV_0002            155.00      3.16      0.12  TCV
  GV_0003            155.00      3.16      0.12  TCV
   
   
  Node Results at 42:00:00 hrs:
  ----------------------------------------------
                     Demand      Head  Pressure
  Node                  L/s         m         m
  ----------------------------------------------
  JT_0001              0.00     99.44      4.44
  JT_0002              0.00     99.31      4.31
  JT_0003              0.00     91.18     91.18
  JT_0004              0.00     83.04     83.04
  JT_0006              0.00     82.89     82.89
  JT_0007              0.00      6.63      6.63
  JT_0009              0.00      6.48      6.48
  JT_0005              0.00     82.92     82.92
  JT_0008              0.00      6.60      6.60
  RES_001           -159.00    100.00     -0.00  Reservoir
  RES_002            159.00      5.00      0.00  Reservoir
   
   
  Link Results at 42:00:00 hrs:
  ----------------------------------------------
                       Flow  Velocity  Headloss
  Link                  L/s       m/s    /1000m
  ----------------------------------------------
  PL_0001            159.00      3.24    562.70
  PL_0002            159.00      3.24     32.54
  PL_0003            159.00      3.24     32.54
  Reducer            159.00      3.24     28.26
  Diffuser           159.00      3.24     28.26
  PL_0004            159.00      3.24    295.48
  RIKO               159.00      3.24     76.26  FCV
  GV_0001            159.00      3.24      0.12  TCV
  GV_0002            159.00      3.24      0.12  TCV
  GV_0003            159.00      3.24      0.12  TCV
   
   
  Node Results at 43:00:00 hrs:
  ----------------------------------------------
                     Demand      Head  Pressure
  Node                  L/s         m         m
  ----------------------------------------------
  JT_0001              0.00     99.42      4.42
  JT_0002              0.00     99.29      4.29
  JT_0003              0.00     90.86     90.86
  JT_0004              0.00     82.43     82.43
  JT_0006              0.00     82.27     82.27
  JT_0007              0.00      6.69      6.69
  JT_0009              0.00      6.53      6.53
  JT_0005              0.00     82.30     82.30
  JT_0008              0.00      6.66      6.66
  RES_001           -162.00    100.00     -0.00  Reservoir
  RES_002            162.00      5.00      0.00  Reservoir
   
   
  Link Results at 43:00:00 hrs:
  ----------------------------------------------
                       Flow  Velocity  Headloss
  Link                  L/s       m/s    /1000m
  ----------------------------------------------
  PL_0001            162.00      3.30    584.07
  PL_0002            162.00      3.30     33.71
  PL_0003            162.00      3.30     33.71
  Reducer            162.00      3.30     29.27
  Diffuser           162.00      3.30     29.28
  PL_0004            162.00      3.30    306.67
  RIKO               162.00      3.30     75.58  FCV
  GV_0001            162.00      3.30      0.13  TCV
  GV_0002            162.00      3.30      0.13  TCV
  GV_0003            162.00      3.30      0.13  TCV
   
   
  Node Results at 44:00:00 hrs:
  ----------------------------------------------
                     Demand      Head  Pressure
  Node                  L/s         m         m
  ----------------------------------------------
  JT_0001              0.00     99.39      4.39
  JT_0002              0.00     99.25      4.25
  JT_0003              0.00     90.42     90.42
  JT_0004              0.00     81.59     81.59
  JT_0006              0.00     81.43     81.43
  JT_0007              0.00      6.78      6.78
  JT_0009              0.00      6.61      6.61
  JT_0005              0.00     81.46     81.46
  JT_0008              0.00      6.75      6.75
  RES_001           -166.00    100.00     -0.00  Reservoir
  RES_002            166.00      5.00      0.00  Reservoir
   
   
  Link Results at 44:00:00 hrs:
  ----------------------------------------------
                       Flow  Velocity  Headloss
  Link                  L/s       m/s    /1000m
  ----------------------------------------------
  PL_0001            166.00      3.38    613.18
  PL_0002            166.00      3.38     35.31
  PL_0003            166.00      3.38     35.31
  Reducer            166.00      3.38     30.65
  Diffuser           166.00      3.38     30.65
  PL_0004            166.00      3.38    321.92
  RIKO               166.00      3.38     74.65  FCV
  GV_0001            166.00      3.38      0.14  TCV
  GV_0002            166.00      3.38      0.14  TCV
  GV_0003            166.00      3.38      0.14  TCV
   
   
  Node Results at 45:00:00 hrs:
  ----------------------------------------------
                     Demand      Head  Pressure
  Node                  L/s         m         m
  ----------------------------------------------
  JT_0001              0.00     99.36      4.36
  JT_0002              0.00     99.21      4.21
  JT_0003              0.00     89.98     89.98
  JT_0004              0.00     80.74     80.74
  JT_0006              0.00     80.56     80.56
  JT_0007              0.00      6.86      6.86
  JT_0009              0.00      6.69      6.69
  JT_0005              0.00     80.60     80.60
  JT_0008              0.00      6.83      6.83
  RES_001           -170.00    100.00     -0.00  Reservoir
  RES_002            170.00      5.00      0.00  Reservoir
   
   
  Link Results at 45:00:00 hrs:
  ----------------------------------------------
                       Flow  Velocity  Headloss
  Link                  L/s       m/s    /1000m
  ----------------------------------------------
  PL_0001            170.00      3.46    643.00
  PL_0002            170.00      3.46     36.95
  PL_0003            170.00      3.46     36.95
  Reducer            170.00      3.46     32.07
  Diffuser           170.00      3.46     32.06
  PL_0004            170.00      3.46    337.54
  RIKO               170.00      3.46     73.70  FCV
  GV_0001            170.00      3.46      0.14  TCV
  GV_0002            170.00      3.46      0.14  TCV
  GV_0003            170.00      3.46      0.14  TCV
   
   
  Node Results at 46:00:00 hrs:
  ----------------------------------------------
                     Demand      Head  Pressure
  Node                  L/s         m         m
  ----------------------------------------------
  JT_0001              0.00     99.33      4.33
  JT_0002              0.00     99.18      4.18
  JT_0003              0.00     89.52     89.52
  JT_0004              0.00     79.87     79.87
  JT_0006              0.00     79.68     79.68
  JT_0007              0.00      6.95      6.95
  JT_0009              0.00      6.77      6.77
  JT_0005              0.00     79.72     79.72
  JT_0008              0.00      6.92      6.92
  RES_001           -174.00    100.00     -0.00  Reservoir
  RES_002            174.00      5.00      0.00  Reservoir
   
   
  Link Results at 46:00:00 hrs:
  ----------------------------------------------
                       Flow  Velocity  Headloss
  Link                  L/s       m/s    /1000m
  ----------------------------------------------
  PL_0001            174.00      3.54    673.53
  PL_0002            174.00      3.54     38.62
  PL_0003            174.00      3.54     38.62
  Reducer            174.00      3.54     33.50
  Diffuser           174.00      3.54     33.50
  PL_0004            174.00      3.54    353.52
  RIKO               174.00      3.54     72.73  FCV
  GV_0001            174.00      3.54      0.15  TCV
  GV_0002            174.00      3.54      0.15  TCV
  GV_0003            174.00      3.54      0.15  TCV
   
   
  Node Results at 47:00:00 hrs:
  ----------------------------------------------
                     Demand      Head  Pressure
  Node                  L/s         m         m
  ----------------------------------------------
  JT_0001              0.00     99.30      4.30
  JT_0002              0.00     99.15      4.15
  JT_0003              0.00     89.17     89.17
  JT_0004              0.00     79.20     79.20
  JT_0006              0.00     79.01     79.01
  JT_0007              0.00      7.02      7.02
  JT_0009              0.00      6.83      6.83
  JT_0005              0.00     79.04     79.04
  JT_0008              0.00      6.98      6.98
  RES_001           -177.00    100.00     -0.00  Reservoir
  RES_002            177.00      5.00      0.00  Reservoir
   
   
  Link Results at 47:00:00 hrs:
  ----------------------------------------------
                       Flow  Velocity  Headloss
  Link                  L/s       m/s    /1000m
  ----------------------------------------------
  PL_0001            177.00      3.61    696.90
  PL_0002            177.00      3.61     39.90
  PL_0003            177.00      3.61     39.90
  Reducer            177.00      3.61     34.61
  Diffuser           177.00      3.61     34.60
  PL_0004            177.00      3.61    365.75
  RIKO               177.00      3.61     71.99  FCV
  GV_0001            177.00      3.61      0.15  TCV
  GV_0002            177.00      3.61      0.15  TCV
  GV_0003            177.00      3.61      0.15  TCV
   
   
  Node Results at 48:00:00 hrs:
  ----------------------------------------------
                     Demand      Head  Pressure
  Node                  L/s         m         m
  ----------------------------------------------
  JT_0001              0.00     99.27      4.27
  JT_0002              0.00     99.11      4.11
  JT_0003              0.00     88.70     88.70
  JT_0004              0.00     78.29     78.29
  JT_0006              0.00     78.09     78.09
  JT_0007              0.00      7.11      7.11
  JT_0009              0.00      6.91      6.91
  JT_0005              0.00     78.13     78.13
  JT_0008              0.00      7.07      7.07
  RES_001           -181.00    100.00     -0.00  Reservoir
  RES_002            181.00      5.00      0.00  Reservoir
   
   
  Link Results at 48:00:00 hrs:
  ----------------------------------------------
                       Flow  Velocity  Headloss
  Link                  L/s       m/s    /1000m
  ----------------------------------------------
  PL_0001            181.00      3.69    728.66
  PL_0002            181.00      3.69     41.64
  PL_0003            181.00      3.69     41.64
  Reducer            181.00      3.69     36.10
  Diffuser           181.00      3.69     36.10
  PL_0004            181.00      3.69    382.38
  RIKO               181.00      3.69     70.98  FCV
  GV_0001            181.00      3.69      0.16  TCV
  GV_0002            181.00      3.69      0.16  TCV
  GV_0003            181.00      3.69      0.16  TCV
   
   
  Node Results at 49:00:00 hrs:
  ----------------------------------------------
                     Demand      Head  Pressure
  Node                  L/s         m         m
  ----------------------------------------------
  JT_0001              0.00     99.24      4.24
  JT_0002              0.00     99.07      4.07
  JT_0003              0.00     88.22     88.22
  JT_0004              0.00     77.37     77.37
  JT_0006              0.00     77.16     77.16
  JT_0007              0.00      7.20      7.20
  JT_0009              0.00      7.00      7.00
  JT_0005              0.00     77.20     77.20
  JT_0008              0.00      7.17      7.17
  RES_001           -185.00    100.00     -0.00  Reservoir
  RES_002            185.00      5.00      0.00  Reservoir
   
   
  Link Results at 49:00:00 hrs:
  ----------------------------------------------
                       Flow  Velocity  Headloss
  Link                  L/s       m/s    /1000m
  ----------------------------------------------
  PL_0001            185.00      3.77    761.13
  PL_0002            185.00      3.77     43.41
  PL_0003            185.00      3.77     43.41
  Reducer            185.00      3.77     37.62
  Diffuser           185.00      3.77     37.62
  PL_0004            185.00      3.77    399.38
  RIKO               185.00      3.77     69.96  FCV
  GV_0001            185.00      3.77      0.17  TCV
  GV_0002            185.00      3.77      0.17  TCV
  GV_0003            185.00      3.77      0.17  TCV
   
   
  Node Results at 50:00:00 hrs:
  ----------------------------------------------
                     Demand      Head  Pressure
  Node                  L/s         m         m
  ----------------------------------------------
  JT_0001              0.00     99.21      4.21
  JT_0002              0.00     99.04      4.04
  JT_0003              0.00     87.85     87.85
  JT_0004              0.00     76.66     76.66
  JT_0006              0.00     76.45     76.45
  JT_0007              0.00      7.27      7.27
  JT_0009              0.00      7.06      7.06
  JT_0005              0.00     76.49     76.49
  JT_0008              0.00      7.24      7.24
  RES_001           -188.00    100.00     -0.00  Reservoir
  RES_002            188.00      5.00      0.00  Reservoir
   
   
  Link Results at 50:00:00 hrs:
  ----------------------------------------------
                       Flow  Velocity  Headloss
  Link                  L/s       m/s    /1000m
  ----------------------------------------------
  PL_0001            188.00      3.83    785.95
  PL_0002            188.00      3.83     44.76
  PL_0003            188.00      3.83     44.76
  Reducer            188.00      3.83     38.78
  Diffuser           188.00      3.83     38.78
  PL_0004            188.00      3.83    412.37
  RIKO               188.00      3.83     69.17  FCV
  GV_0001            188.00      3.83      0.17  TCV
  GV_0002            188.00      3.83      0.17  TCV
  GV_0003            188.00      3.83      0.17  TCV
   
   
  Node Results at 51:00:00 hrs:
  ----------------------------------------------
                     Demand      Head  Pressure
  Node                  L/s         m         m
  ----------------------------------------------
  JT_0001              0.00     99.18      4.18
  JT_0002              0.00     99.00      4.00
  JT_0003              0.00     87.35     87.35
  JT_0004              0.00     75.70     75.70
  JT_0006              0.00     75.48     75.48
  JT_0007              0.00      7.37      7.37
  JT_0009              0.00      7.15      7.15
  JT_0005              0.00     75.52     75.52
  JT_0008              0.00      7.33      7.33
  RES_001           -192.00    100.00     -0.00  Reservoir
  RES_002            192.00      5.00      0.00  Reservoir
   
   
  Link Results at 51:00:00 hrs:
  ----------------------------------------------
                       Flow  Velocity  Headloss
  Link                  L/s       m/s    /1000m
  ----------------------------------------------
  PL_0001            192.00      3.91    819.66
  PL_0002            192.00      3.91     46.59
  PL_0003            192.00      3.91     46.59
  Reducer            192.00      3.91     40.36
  Diffuser           192.00      3.91     40.36
  PL_0004            192.00      3.91    430.01
  RIKO               192.00      3.91     68.11  FCV
  GV_0001            192.00      3.91      0.18  TCV
  GV_0002            192.00      3.91      0.18  TCV
  GV_0003            192.00      3.91      0.18  TCV
   
   
  Node Results at 52:00:00 hrs:
  ----------------------------------------------
                     Demand      Head  Pressure
  Node                  L/s         m         m
  ----------------------------------------------
  JT_0001              0.00     99.15      4.15
  JT_0002              0.00     98.96      3.96
  JT_0003              0.00     86.84     86.84
  JT_0004              0.00     74.72     74.72
  JT_0006              0.00     74.49     74.49
  JT_0007              0.00      7.47      7.47
[...]
  RIKO               325.00      6.62     20.81  FCV
  GV_0001            325.00      6.62      0.52  TCV
  GV_0002            325.00      6.62      0.52  TCV
  GV_0003            325.00      6.62      0.52  TCV
   
   
  Node Results at 88:00:00 hrs:
  ----------------------------------------------
                     Demand      Head  Pressure
  Node                  L/s         m         m
  ----------------------------------------------
  JT_0001              0.00     97.60      2.60
  JT_0002              0.00     97.07      2.07
  JT_0003              0.00     64.33     64.33
  JT_0004              0.00     31.60     31.60
  JT_0006              0.00     30.96     30.96
  JT_0007              0.00     11.93     11.93
  JT_0009              0.00     11.28     11.28
  JT_0005              0.00     31.07     31.07
  JT_0008              0.00     11.82     11.82
  RES_001           -329.00    100.00     -0.00  Reservoir
  RES_002            329.00      5.00      0.00  Reservoir
   
   
  Link Results at 88:00:00 hrs:
  ----------------------------------------------
                       Flow  Velocity  Headloss
  Link                  L/s       m/s    /1000m
  ----------------------------------------------
  PL_0001            329.00      6.70   2400.83
  PL_0002            329.00      6.70    130.93
  PL_0003            329.00      6.70    130.93
  Reducer            329.00      6.70    112.62
  Diffuser           329.00      6.70    112.62
  PL_0004            329.00      6.70   1256.73
  RIKO               329.00      6.70     19.03  FCV
  GV_0001            329.00      6.70      0.53  TCV
  GV_0002            329.00      6.70      0.53  TCV
  GV_0003            329.00      6.70      0.53  TCV
   
   
  Node Results at 89:00:00 hrs:
  ----------------------------------------------
                     Demand      Head  Pressure
  Node                  L/s         m         m
  ----------------------------------------------
  JT_0001              0.00     97.56      2.56
  JT_0002              0.00     97.01      2.01
  JT_0003              0.00     63.70     63.70
  JT_0004              0.00     30.39     30.39
  JT_0006              0.00     29.73     29.73
  JT_0007              0.00     12.06     12.06
  JT_0009              0.00     11.40     11.40
  JT_0005              0.00     29.85     29.85
  JT_0008              0.00     11.94     11.94
  RES_001           -332.00    100.00     -0.00  Reservoir
  RES_002            332.00      5.00      0.00  Reservoir
   
   
  Link Results at 89:00:00 hrs:
  ----------------------------------------------
                       Flow  Velocity  Headloss
  Link                  L/s       m/s    /1000m
  ----------------------------------------------
  PL_0001            332.00      6.76   2444.73
  PL_0002            332.00      6.76    133.24
  PL_0003            332.00      6.76    133.24
  Reducer            332.00      6.76    114.60
  Diffuser           332.00      6.76    114.60
  PL_0004            332.00      6.76   1279.66
  RIKO               332.00      6.76     17.68  FCV
  GV_0001            332.00      6.76      0.54  TCV
  GV_0002            332.00      6.76      0.54  TCV
  GV_0003            332.00      6.76      0.54  TCV
   
   
  Node Results at 90:00:00 hrs:
  ----------------------------------------------
                     Demand      Head  Pressure
  Node                  L/s         m         m
  ----------------------------------------------
  JT_0001              0.00     97.50      2.50
  JT_0002              0.00     96.94      1.94
  JT_0003              0.00     62.85     62.85
  JT_0004              0.00     28.76     28.76
  JT_0006              0.00     28.09     28.09
  JT_0007              0.00     12.23     12.23
  JT_0009              0.00     11.55     11.55
  JT_0005              0.00     28.21     28.21
  JT_0008              0.00     12.11     12.11
  RES_001           -336.00    100.00     -0.00  Reservoir
  RES_002            336.00      5.00      0.00  Reservoir
   
   
  Link Results at 90:00:00 hrs:
  ----------------------------------------------
                       Flow  Velocity  Headloss
  Link                  L/s       m/s    /1000m
  ----------------------------------------------
  PL_0001            336.00      6.84   2503.88
  PL_0002            336.00      6.84    136.36
  PL_0003            336.00      6.84    136.36
  Reducer            336.00      6.84    117.26
  Diffuser           336.00      6.84    117.26
  PL_0004            336.00      6.84   1310.57
  RIKO               336.00      6.84     15.86  FCV
  GV_0001            336.00      6.84      0.56  TCV
  GV_0002            336.00      6.84      0.56  TCV
  GV_0003            336.00      6.84      0.56  TCV
   
   
  Node Results at 91:00:00 hrs:
  ----------------------------------------------
                     Demand      Head  Pressure
  Node                  L/s         m         m
  ----------------------------------------------
  JT_0001              0.00     97.44      2.44
  JT_0002              0.00     96.87      1.87
  JT_0003              0.00     61.99     61.99
  JT_0004              0.00     27.11     27.11
  JT_0006              0.00     26.42     26.42
  JT_0007              0.00     12.40     12.40
  JT_0009              0.00     11.71     11.71
  JT_0005              0.00     26.54     26.54
  JT_0008              0.00     12.28     12.28
  RES_001           -340.00    100.00     -0.00  Reservoir
  RES_002            340.00      5.00      0.00  Reservoir
   
   
  Link Results at 91:00:00 hrs:
  ----------------------------------------------
                       Flow  Velocity  Headloss
  Link                  L/s       m/s    /1000m
  ----------------------------------------------
  PL_0001            340.00      6.93   2563.73
  PL_0002            340.00      6.93    139.51
  PL_0003            340.00      6.93    139.51
  Reducer            340.00      6.93    119.96
  Diffuser           340.00      6.93    119.96
  PL_0004            340.00      6.93   1341.84
  RIKO               340.00      6.93     14.03  FCV
  GV_0001            340.00      6.93      0.57  TCV
  GV_0002            340.00      6.93      0.57  TCV
  GV_0003            340.00      6.93      0.57  TCV
   
   
  Node Results at 92:00:00 hrs:
  ----------------------------------------------
                     Demand      Head  Pressure
  Node                  L/s         m         m
  ----------------------------------------------
  JT_0001              0.00     97.39      2.39
  JT_0002              0.00     96.81      1.81
  JT_0003              0.00     61.34     61.34
  JT_0004              0.00     25.87     25.87
  JT_0006              0.00     25.16     25.16
  JT_0007              0.00     12.53     12.53
  JT_0009              0.00     11.83     11.83
  JT_0005              0.00     25.29     25.29
  JT_0008              0.00     12.41     12.41
  RES_001           -343.00    100.00     -0.00  Reservoir
  RES_002            343.00      5.00      0.00  Reservoir
   
   
  Link Results at 92:00:00 hrs:
  ----------------------------------------------
                       Flow  Velocity  Headloss
  Link                  L/s       m/s    /1000m
  ----------------------------------------------
  PL_0001            343.00      6.99   2609.09
  PL_0002            343.00      6.99    141.89
  PL_0003            343.00      6.99    141.89
  Reducer            343.00      6.99    121.99
  Diffuser           343.00      6.99    121.99
  PL_0004            343.00      6.99   1365.54
  RIKO               343.00      6.99     12.64  FCV
  GV_0001            343.00      6.99      0.58  TCV
  GV_0002            343.00      6.99      0.58  TCV
  GV_0003            343.00      6.99      0.58  TCV
   
   
  Node Results at 93:00:00 hrs:
  ----------------------------------------------
                     Demand      Head  Pressure
  Node                  L/s         m         m
  ----------------------------------------------
  JT_0001              0.00     97.33      2.33
  JT_0002              0.00     96.74      1.74
  JT_0003              0.00     60.46     60.46
  JT_0004              0.00     24.19     24.19
  JT_0006              0.00     23.47     23.47
  JT_0007              0.00     12.71     12.71
  JT_0009              0.00     11.99     11.99
  JT_0005              0.00     23.59     23.59
  JT_0008              0.00     12.58     12.58
  RES_001           -347.00    100.00     -0.00  Reservoir
  RES_002            347.00      5.00      0.00  Reservoir
   
   
  Link Results at 93:00:00 hrs:
  ----------------------------------------------
                       Flow  Velocity  Headloss
  Link                  L/s       m/s    /1000m
  ----------------------------------------------
  PL_0001            347.00      7.07   2670.17
  PL_0002            347.00      7.07    145.10
  PL_0003            347.00      7.07    145.10
  Reducer            347.00      7.07    124.74
  Diffuser           347.00      7.07    124.74
  PL_0004            347.00      7.07   1397.46
  RIKO               347.00      7.07     10.76  FCV
  GV_0001            347.00      7.07      0.59  TCV
  GV_0002            347.00      7.07      0.59  TCV
  GV_0003            347.00      7.07      0.59  TCV
   
   
  Node Results at 94:00:00 hrs:
  ----------------------------------------------
                     Demand      Head  Pressure
  Node                  L/s         m         m
  ----------------------------------------------
  JT_0001              0.00     97.27      2.27
  JT_0002              0.00     96.66      1.66
  JT_0003              0.00     59.57     59.57
  JT_0004              0.00     22.49     22.49
  JT_0006              0.00     21.75     21.75
  JT_0007              0.00     12.88     12.88
  JT_0009              0.00     12.15     12.15
  JT_0005              0.00     21.88     21.88
  JT_0008              0.00     12.76     12.76
  RES_001           -351.00    100.00     -0.00  Reservoir
  RES_002            351.00      5.00      0.00  Reservoir
   
   
  Link Results at 94:00:00 hrs:
  ----------------------------------------------
                       Flow  Velocity  Headloss
  Link                  L/s       m/s    /1000m
  ----------------------------------------------
  PL_0001            351.00      7.15   2731.97
  PL_0002            351.00      7.15    148.35
  PL_0003            351.00      7.15    148.35
  Reducer            351.00      7.15    127.52
  Diffuser           351.00      7.15    127.51
  PL_0004            351.00      7.15   1429.74
  RIKO               351.00      7.15      8.87  FCV
  GV_0001            351.00      7.15      0.61  TCV
  GV_0002            351.00      7.15      0.61  TCV
  GV_0003            351.00      7.15      0.61  TCV
   
   
  Node Results at 95:00:00 hrs:
  ----------------------------------------------
                     Demand      Head  Pressure
  Node                  L/s         m         m
  ----------------------------------------------
  JT_0001              0.00     97.22      2.22
  JT_0002              0.00     96.60      1.60
  JT_0003              0.00     58.90     58.90
  JT_0004              0.00     21.20     21.20
  JT_0006              0.00     20.45     20.45
  JT_0007              0.00     13.02     13.02
  JT_0009              0.00     12.27     12.27
  JT_0005              0.00     20.58     20.58
  JT_0008              0.00     12.89     12.89
  RES_001           -354.00    100.00     -0.00  Reservoir
  RES_002            354.00      5.00      0.00  Reservoir
   
   
  Link Results at 95:00:00 hrs:
  ----------------------------------------------
                       Flow  Velocity  Headloss
  Link                  L/s       m/s    /1000m
  ----------------------------------------------
  PL_0001            354.00      7.21   2778.79
  PL_0002            354.00      7.21    150.81
  PL_0003            354.00      7.21    150.81
  Reducer            354.00      7.21    129.62
  Diffuser           354.00      7.21    129.62
  PL_0004            354.00      7.21   1454.20
  RIKO               354.00      7.21      7.43  FCV
  GV_0001            354.00      7.21      0.62  TCV
  GV_0002            354.00      7.21      0.62  TCV
  GV_0003            354.00      7.21      0.62  TCV
   
   
  Node Results at 96:00:00 hrs:
  ----------------------------------------------
                     Demand      Head  Pressure
  Node                  L/s         m         m
  ----------------------------------------------
  JT_0001              0.00     97.16      2.16
  JT_0002              0.00     96.53      1.53
  JT_0003              0.00     58.00     58.00
  JT_0004              0.00     19.47     19.47
  JT_0006              0.00     18.70     18.70
  JT_0007              0.00     13.20     13.20
  JT_0009              0.00     12.44     12.44
  JT_0005              0.00     18.84     18.84
  JT_0008              0.00     13.07     13.07
  RES_001           -358.00    100.00     -0.00  Reservoir
  RES_002            358.00      5.00      0.00  Reservoir
   
   
  Link Results at 96:00:00 hrs:
  ----------------------------------------------
                       Flow  Velocity  Headloss
  Link                  L/s       m/s    /1000m
  ----------------------------------------------
  PL_0001            358.00      7.29   2841.82
  PL_0002            358.00      7.29    154.12
  PL_0003            358.00      7.29    154.12
  Reducer            358.00      7.29    132.44
  Diffuser           358.00      7.29    132.44
  PL_0004            358.00      7.29   1487.13
  RIKO               358.00      7.29      5.51  FCV
  GV_0001            358.00      7.29      0.63  TCV
  GV_0002            358.00      7.29      0.63  TCV
  GV_0003            358.00      7.29      0.63  TCV
   
   
  Node Results at 97:00:00 hrs:
  ----------------------------------------------
                     Demand      Head  Pressure
  Node                  L/s         m         m
  ----------------------------------------------
  JT_0001              0.00     97.09      2.09
  JT_0002              0.00     96.45      1.45
  JT_0003              0.00     57.08     57.08
  JT_0004              0.00     17.72     17.72
  JT_0006              0.00     16.94     16.94
  JT_0007              0.00     13.38     13.38
  JT_0009              0.00     12.60     12.60
  JT_0005              0.00     17.07     17.07
  JT_0008              0.00     13.25     13.25
  RES_001           -362.00    100.00     -0.00  Reservoir
  RES_002            362.00      5.00      0.00  Reservoir
   
   
  Link Results at 97:00:00 hrs:
  ----------------------------------------------
                       Flow  Velocity  Headloss
  Link                  L/s       m/s    /1000m
  ----------------------------------------------
  PL_0001            362.00      7.37   2905.56
  PL_0002            362.00      7.37    157.46
  PL_0003            362.00      7.37    157.46
  Reducer            362.00      7.37    135.30
  Diffuser           362.00      7.37    135.30
  PL_0004            362.00      7.37   1520.43
  RIKO               362.00      7.37      3.55  FCV
  GV_0001            362.00      7.37      0.65  TCV
  GV_0002            362.00      7.37      0.65  TCV
  GV_0003            362.00      7.37      0.65  TCV
   
   
  Node Results at 98:00:00 hrs:
  ----------------------------------------------
                     Demand      Head  Pressure
  Node                  L/s         m         m
  ----------------------------------------------
  JT_0001              0.00     97.05      2.05
  JT_0002              0.00     96.39      1.39
  JT_0003              0.00     56.39     56.39
  JT_0004              0.00     16.39     16.39
  JT_0006              0.00     15.60     15.60
  JT_0007              0.00     13.52     13.52
  JT_0009              0.00     12.73     12.73
  JT_0005              0.00     15.74     15.74
  JT_0008              0.00     13.38     13.38
  RES_001           -365.00    100.00     -0.00  Reservoir
  RES_002            365.00      5.00      0.00  Reservoir
   
   
  Link Results at 98:00:00 hrs:
  ----------------------------------------------
                       Flow  Velocity  Headloss
  Link                  L/s       m/s    /1000m
  ----------------------------------------------
  PL_0001            365.00      7.44   2953.83
  PL_0002            365.00      7.44    159.99
  PL_0003            365.00      7.44    159.99
  Reducer            365.00      7.44    137.46
  Diffuser           365.00      7.44    137.46
  PL_0004            365.00      7.44   1545.65
  RIKO               365.00      7.44      2.08  FCV
  GV_0001            365.00      7.44      0.66  TCV
  GV_0002            365.00      7.44      0.66  TCV
  GV_0003            365.00      7.44      0.66  TCV
   
   
  Node Results at 99:00:00 hrs:
  ----------------------------------------------
                     Demand      Head  Pressure
  Node                  L/s         m         m
  ----------------------------------------------
  JT_0001              0.00     96.98      1.98
  JT_0002              0.00     96.31      1.31
  JT_0003              0.00     55.42     55.42
  JT_0004              0.00     14.53     14.53
  JT_0006              0.00     13.72     13.72
  JT_0007              0.00     13.72     13.72
  JT_0009              0.00     12.91     12.91
  JT_0005              0.00     13.86     13.86
  JT_0008              0.00     13.58     13.58
  RES_001           -369.18    100.00     -0.00  Reservoir
  RES_002            369.18      5.00      0.00  Reservoir
   
   
  Link Results at 99:00:00 hrs:
  ----------------------------------------------
                       Flow  Velocity  Headloss
  Link                  L/s       m/s    /1000m
  ----------------------------------------------
  PL_0001            369.18      7.52   3021.78
  PL_0002            369.18      7.52    163.55
  PL_0003            369.18      7.52    163.56
  Reducer            369.18      7.52    140.50
  Diffuser           369.18      7.52    140.50
  PL_0004            369.18      7.52   1581.14
  RIKO               369.18      7.52      0.00  FCV
  GV_0001            369.18      7.52      0.67  TCV
  GV_0002            369.18      7.52      0.67  TCV
  GV_0003            369.18      7.52      0.67  TCV
   
   
  Node Results at 100:00:00 hrs:
  ----------------------------------------------
                     Demand      Head  Pressure
  Node                  L/s         m         m
  ----------------------------------------------
  JT_0001              0.00     96.98      1.98
  JT_0002              0.00     96.31      1.31
  JT_0003              0.00     55.42     55.42
  JT_0004              0.00     14.53     14.53
  JT_0006              0.00     13.72     13.72
  JT_0007              0.00     13.72     13.72
  JT_0009              0.00     12.91     12.91
  JT_0005              0.00     13.86     13.86
  JT_0008              0.00     13.58     13.58
  RES_001           -369.18    100.00     -0.00  Reservoir
  RES_002            369.18      5.00      0.00  Reservoir
   
   
  Link Results at 100:00:00 hrs:
  ----------------------------------------------
                       Flow  Velocity  Headloss
  Link                  L/s       m/s    /1000m
  ----------------------------------------------
  PL_0001            369.18      7.52   3021.78
  PL_0002            369.18      7.52    163.55
  PL_0003            369.18      7.52    163.55
  Reducer            369.18      7.52    140.50
  Diffuser           369.18      7.52    140.50
  PL_0004            369.18      7.52   1581.14
  RIKO               369.18      7.52      0.00  FCV
  GV_0001            369.18      7.52      0.67  TCV
  GV_0002            369.18      7.52      0.67  TCV
  GV_0003            369.18      7.52      0.67  TCV
   
  Analysis ended Sun Jun 28 04:59:11 2020
